14

C            1.43362374117855       -0.07172339346500        0.68200092195531
C            1.43362374117855       -0.07172339346500       -0.68200092195531
C           -0.96582909959563        0.17183308875313       -1.19958142957278
N           -1.34265886673024       -0.30734574169785        0.00000000000000
C           -0.96582909959563        0.17183308875313        1.19958142957278
H            1.47349698287946       -0.99649727672812        1.24415483446034
H            1.65932546941932        0.82721099932881        1.24287654086032
H            1.47349698287946       -0.99649727672812       -1.24415483446034
H            1.65932546941932        0.82721099932881       -1.24287654086032
H           -0.81622699424678        1.23706667710094       -1.28551365502786
H           -1.29551931341016       -0.37599260445903       -2.07048087783933
H           -1.63508270571928       -1.27644923936360        0.00000000000000
H           -0.81622699424678        1.23706667710094        1.28551365502786
H           -1.29551931341016       -0.37599260445903        2.07048087783933
