14

C            1.86470323244719       -0.41189459948768        0.00000000000000
C            3.06693308667809        0.17596964993252        0.00000000000000
C            0.60393268183939        0.29814492957811        0.00000000000000
C           -0.60393268183939       -0.29814492957811        0.00000000000000
C           -1.86470323244719        0.41189459948768        0.00000000000000
C           -3.06693308667809       -0.17596964993252        0.00000000000000
H            1.80745912074644       -1.49799490851811        0.00000000000000
H            3.17080290898083        1.25570672436831        0.00000000000000
H            3.98132517802059       -0.40325778391626        0.00000000000000
H            0.65494192973381        1.38514808981535        0.00000000000000
H           -0.65494192973381       -1.38514808981535        0.00000000000000
H           -1.80745912074644        1.49799490851811        0.00000000000000
H           -3.17080290898083       -1.25570672436831        0.00000000000000
H           -3.98132517802059        0.40325778391626        0.00000000000000
