18

C           -1.45085583804550        0.01702723794509       -0.06070210781122
C           -0.78862541892299        0.01276343650735       -1.27317428940549
C            0.59487803340923        0.00198825317327       -1.26184987217965
C            1.28716265883511       -0.00555463795029       -0.05597371393580
C            0.59331579658105       -0.00142965083364        1.14882888301216
C           -0.79267432683161        0.01044087457291        1.15251172501866
N           -2.92836786425288        0.00319642106188       -0.06370270684841
H           -3.30983088687280        0.48438878508692       -0.88350667473647
H           -3.31421742899100        0.47308587009772        0.76048512725597
H           -1.32096357733600        0.01849306849477       -2.21833949472701
H            1.14439777819610        0.00358200524274       -2.19486653345720
C            2.78271910312769       -0.01205029852564       -0.11708536823976
H            1.12259386908716       -0.00246056675985        2.09222564631759
H           -1.32874591256287        0.01455745059745        2.09556261525247
O            3.33190679265379       -0.02970039871296        1.08750706362215
O            3.38604228874452       -0.00347774951772       -1.14778199479414
H            4.29538376198532       -0.03375491213655        1.01137878208723
H           -3.30411882880432       -0.95109518834346       -0.07151708643106
