14

C            1.23832305881122        0.00000000000000       -0.18227436717546
C            1.22852765669931        0.00000000000000        1.18398533877693
C            0.00000000000000        0.00000000000000        1.85844730994068
C           -1.22852765669931        0.00000000000000        1.18398533877693
C           -1.23832305881122        0.00000000000000       -0.18227436717546
C            0.00000000000000        0.00000000000000       -0.90235258745308
C            0.00000000000000        0.00000000000000       -2.26407680328365
H           -0.92729753437210        0.00000000000000       -2.82867143331240
H            0.92729753437210        0.00000000000000       -2.82867143331240
H            2.16959118694908        0.00000000000000       -0.73741908205485
H            2.15324215295399        0.00000000000000        1.74656512408816
H            0.00000000000000        0.00000000000000        2.94361092015132
H           -2.15324215295399        0.00000000000000        1.74656512408816
H           -2.16959118694908        0.00000000000000       -0.73741908205485
