27

C            0.76301835523074        0.86914171902785       -1.87993058634093
H            1.43494931361500        1.68090397018904       -1.63581874389463
C            1.23512546449727       -0.44194059005418       -1.90703358361271
H            2.27323156275212       -0.64764057638319       -1.68321014142743
C            0.36971015817690       -1.48763910596844       -2.22365289590601
H            0.73566078509057       -2.50518249066723       -2.24386542168017
C           -0.96746016194424       -1.22207408283537       -2.51404315820405
H           -1.63898641829786       -2.03366318721315       -2.75869509372876
C           -1.43959204252519        0.08930302346237       -2.48764435715556
H           -2.47721119085222        0.29519958854169       -2.71238894234528
C           -0.57443349880851        1.13492153095741       -2.17010871260785
H           -0.94022633407390        2.15260788399244       -2.14984387502050
C           -0.76598017125169       -0.72587632286190        1.35890592772236
H           -0.87223400474851       -0.55092717510304        0.28659913860655
H           -1.41761770007473       -1.55514015987149        1.63205657335027
C            0.70356091029407       -0.98293939442079        1.70303578205806
H            1.19879165500739       -1.62052439750794        0.97245155611511
H            0.76684008098555       -1.48315313210717        2.67050234939845
C            1.34369791069828        0.42245717939936        1.79398863165923
H            1.99396618078785        0.61512809888148        0.94213576841783
H            1.95656505049750        0.51162659649352        2.68971393012806
C            0.16465187171339        1.42163412647112        1.82086066583307
H            0.04750039186894        1.88060448714929        0.83857539771104
H            0.31024545134137        2.22313889971133        2.54325921777889
C           -1.06911980589852        0.56453899829464        2.11650950971631
H           -2.00010824971514        1.04027641086842        1.81059638745575
H           -1.13454556436647        0.35521810155388        3.18704467597292
