16

N           -2.24579489395525       -0.25044139149227        0.03995219023579
C           -2.66710845485218        1.04870305274144        0.09193232632232
N           -1.68237590542796        1.89513942944846        0.08992436119423
C           -0.55735191681746        1.11281224647224        0.03342721749718
C            0.81820189607039        1.47564926545090        0.00732238413802
O            1.31447879227607        2.58934342512630        0.02875742368129
N            1.62982329241177        0.33868127515663       -0.05102549193151
C            1.19556452538096       -0.95700148920712       -0.07919415367907
N            2.13611005348479       -1.90901947667611       -0.17763811375930
N           -0.07007497932652       -1.28864999185677       -0.05083893344826
C           -0.89288313696110       -0.22916412197609        0.00184280430428
H           -2.83612739656390       -1.06955864164168        0.03275747213055
H            3.10125569782601       -1.70813310058063        0.02642001375609
H            1.84611361675593       -2.86363192043680       -0.04353158971938
H           -3.71688726171728        1.30014647741360        0.12974985609645
H            2.62705607141572        0.51512496205791       -0.07985776681868
