4

N            1.85519886840965        0.00000000000000        0.00000000000000
C            0.69392195086650        0.00000000000000        0.00000000000000
C           -0.69392195086650        0.00000000000000        0.00000000000000
N           -1.85519886840965        0.00000000000000        0.00000000000000
