22

N            1.07605121686615        0.50205182567033       -0.56860772517457
H            1.30498148936644        0.92592020658378       -1.45597680024517
C            0.01230588459053        1.09001802936082        0.21901293166550
H            0.35585130327125        1.28888309026533        1.23397861125852
C           -0.42335727661741        2.40434012010487       -0.41634398228814
C           -1.22490740439180        0.20139298199165        0.37321108508882
H           -1.24004595498532        2.83139489008406        0.15863883685861
H            0.40578270021447        3.10900076279461       -0.44118443455342
H           -0.77099397804936        2.23220778393612       -1.43550755766545
O           -2.07866558674274        0.47924822279960        1.20669457188468
C            2.02173786115581       -0.39180256722964       -0.12270256378289
C            1.82179224937494       -0.91592351173486        1.27721805729831
H            2.03299681429036       -0.13119612623898        2.00342499623003
H            2.51498967757752       -1.73486591071391        1.43278181712287
H            0.80085040514179       -1.25514205698036        1.44141251353753
O            2.95494392636275       -0.72967804184643       -0.83454121557327
N           -1.29677212636632       -0.84288267230700       -0.48267532151869
H           -0.52119524532599       -0.97193183306144       -1.11039478963074
C           -2.42127907118750       -1.75209940438189       -0.49584510906706
H           -2.08688766913522       -2.78093063786048       -0.38123585618086
H           -3.06181008799845       -1.48630644287142        0.33948698602436
H           -2.99002013971814       -1.66428370658283       -1.42000504901098
