17

B            0.00000000000000        0.00000000000000       -0.77436694499523
P            0.00000000000000        0.00000000000000        1.20557391429279
C            0.00000000000000       -1.70380087889545        1.86618186733717
C           -1.47553489506849        0.85190093952019        1.86618186733717
C            1.47553489506849        0.85190093952019        1.86618186733717
Cl           0.00000000000000        1.79380887253218       -1.28695690836601
Cl          -1.55348388994180       -0.89690493607397       -1.28695690836601
Cl           1.55348388994180       -0.89690493607397       -1.28695690836601
H            2.36448083232032        0.34128197551883        1.49287389386472
H            1.47779889509699        1.87705986692249        1.49287389386472
H            1.47087389531554        0.84920893990515        2.95816578982989
H           -1.47779889509699        1.87705986692249        1.49287389386472
H           -2.36448083232032        0.34128197551883        1.49287389386472
H           -1.47087389531554        0.84920893990515        2.95816578982989
H            0.00000000000000       -1.69841887942606        2.95816578982989
H           -0.88668193722334       -2.21834084229639        1.49287389386472
H            0.88668193722334       -2.21834084229639        1.49287389386472
