6

C            0.13545010059242        0.33354450145884        0.00000000000000
O            0.17446730076308       -1.07740790471232        0.00000000000000
H            0.64391550281633        0.72029290315039        0.87944500384648
H            0.64391550281633        0.72029290315039       -0.87944500384648
H           -0.88120420385417        0.72077130315248        0.00000000000000
H           -0.71654410313399       -1.41749370619977        0.00000000000000
