4

H           -1.58707704514716       -0.83562825820444        0.00000000052918
N           -1.16439939964420        0.08926912360588        0.00000000000000
N            0.07353426996090       -0.03855583200694        0.00000000000000
N            1.20506868658409        0.00941719742779        0.00000000000000
