10

C            1.12508615523693       -0.54109825052314       -0.01266803675311
C            0.13617618799216        0.60269077363195       -0.06563909890642
O           -2.18628257617480       -0.40939239285555       -0.09120084532599
H            0.96851849384662       -1.15581272415266        0.87258907971715
H            1.03333741041031       -1.18092218281008       -0.88926410981249
H            2.14900172416025       -0.16161204315326        0.01900401308534
H            0.13782245829528        1.23071299576129        0.82288875606900
H            0.20027489437181        1.20876272505297       -0.96670390285625
H           -0.96348104430514        0.11308278867284       -0.11661087663921
H           -2.60045370383342        0.29358831037563        0.42760502142198
