13

P            0.00920266284006        0.06573476409334       -0.01941553085610
C            0.03084523265983        0.16866087241302        1.80319371163991
C            1.56394944059019       -0.28968194690357       -0.91322033232797
C           -1.57909525438181        0.18921138200073       -0.91816369727061
H            1.39916210087702       -1.03891667638086       -1.68768267456793
H            2.03463692598043        0.58519307590572       -1.36345106093144
H            2.25480940787157       -0.72224866686741       -0.18784404885842
H           -1.80153678973426        1.18097095456033       -1.31532348306951
H           -1.59501988052747       -0.52749106373509       -1.73960375889365
H           -2.37367535776382       -0.09623324252637       -0.22679815790003
H           -0.96433151601145       -0.09710238347346        2.16406507678710
H            0.72510047126882       -0.56853606733090        2.20606745352754
H            0.29595355633091        1.15043899824452        2.19817450272108
