26

C            0.88529288993178        0.88529288993178       -0.88529288993178
C           -0.88529288993178       -0.88529288993178       -0.88529288993178
C           -0.88529288993178        0.88529288993178        0.88529288993178
C            0.88529288993178       -0.88529288993178        0.88529288993178
C            1.76649936516876        0.00000000000000        0.00000000000000
C            0.00000000000000       -1.76649936516876        0.00000000000000
C            0.00000000000000        0.00000000000000        1.76649936516876
C            0.00000000000000        0.00000000000000       -1.76649936516876
C           -1.76649936516876        0.00000000000000        0.00000000000000
C            0.00000000000000        1.76649936516876        0.00000000000000
H            2.41445835508939        0.62294761725620        0.62294761725620
H            0.62294761725620       -2.41445835508939       -0.62294761725620
H           -0.62294761725620       -0.62294761725620        2.41445835508939
H           -0.62294761725620        0.62294761725620       -2.41445835508939
H           -2.41445835508939        0.62294761725620       -0.62294761725620
H           -0.62294761725620        2.41445835508939       -0.62294761725620
H           -0.62294761725620       -2.41445835508939        0.62294761725620
H            0.62294761725620        0.62294761725620        2.41445835508939
H            2.41445835508939       -0.62294761725620       -0.62294761725620
H           -2.41445835508939       -0.62294761725620        0.62294761725620
H            0.62294761725620        2.41445835508939        0.62294761725620
H            0.62294761725620       -0.62294761725620       -2.41445835508939
H            1.51602909134140        1.51602909134140       -1.51602909134140
H           -1.51602909134140       -1.51602909134140       -1.51602909134140
H           -1.51602909134140        1.51602909134140        1.51602909134140
H            1.51602909134140       -1.51602909134140        1.51602909134140
