29

N           -0.24119282649095        0.84100475624844        0.12033171721527
H           -1.07053922769995        0.36894311436967       -0.21962481183913
C            0.57381883815452        0.14546677024018        1.10590797067073
H            0.91317052662568        0.90086790991519        1.81907482941503
C           -0.23903855801554       -0.91153247667990        1.84169393552318
H           -0.98834877440425       -0.41804612067066        2.46384030110841
H            0.44703387043697       -1.43293351113713        2.50715707567952
C           -0.90891943675096       -1.95548699547647        0.94631125812783
H           -0.26544673098889       -2.19821226945039        0.10311312914985
H           -1.08607877374772       -2.87017364238650        1.51091452108898
S           -2.51836945324253       -1.36469926111130        0.32918130425316
C           -2.83865185430711       -2.68167476008931       -0.86387270058743
H           -3.79784808925435       -2.47538522348182       -1.33152881287208
H           -2.88989774462428       -3.64314047153996       -0.35768842763330
H           -2.06353658768648       -2.70684625218971       -1.62622800616090
C            1.83504487864128       -0.46794809740616        0.46980062000326
O            2.05209391379156       -1.67794386709389        0.47546462958599
N            2.65966251826137        0.45687318348396       -0.06263420412300
H            2.36112001962585        1.42568370492830       -0.00574116011312
C           -0.00049656205993        2.11585915944745       -0.25554520112730
O            0.98902261650935        2.74807322354652        0.12499142248835
C           -1.02081458408297        2.72377210280054       -1.18338271858906
H           -1.38093745592513        3.64811254405855       -0.73817484071858
H           -1.86186973764628        2.06408598149123       -1.38099219481268
H           -0.53135631079197        2.97906522836271       -2.12066780118162
C            3.88207028544706        0.09429049098188       -0.74404977017446
H            4.73172386943952        0.61964352549896       -0.31261258606321
H            4.02384557942030       -0.97517955423266       -0.62357766430807
H            3.82659481144950        0.32862778868278       -1.80636781319605
