24

C            0.15079421995872       -0.12156205129648        0.00000000000000
C            0.65037709383547       -0.88500569031984        1.18656542759605
C            0.14459090706130       -2.08850761483888        1.50773747434832
C           -0.74666531551280       -2.84877377527703        0.67967664601727
C           -0.74666531551280       -2.84877377527703       -0.67967664601727
C            0.14459090706130       -2.08850761483888       -1.50773747434832
C            0.65037709383547       -0.88500569031984       -1.18656542759605
C            0.58371388888524        1.34672124303934        0.00000000000000
C            0.08302590223795        2.13769890333899        1.17015547284271
C           -0.58055281845492        3.21665851943127        0.73028841702676
C           -0.58055281845492        3.21665851943127       -0.73028841702676
C            0.08302590223795        2.13769890333899       -1.17015547284271
H           -0.94619055532582       -0.16518005519134        0.00000000000000
H            1.42825297223029       -0.44227672503949        1.80322296677170
H            0.44991914939383       -2.54737768522919        2.44433996000699
H           -1.36517088193595       -3.59102555816588        1.17639255346322
H           -1.36517088193595       -3.59102555816588       -1.17639255346322
H            0.44991914939383       -2.54737768522919       -2.44433996000699
H            1.42825297223029       -0.44227672503949       -1.80322296677170
H            1.68643752760901        1.37369030389579        0.00000000000000
H            0.24650300365488        1.85787203496733        2.20185951505367
H           -1.04765755307360        3.97390287090907        1.34685026735482
H           -1.04765755307360        3.97390287090907       -1.34685026735482
H            0.24650300365488        1.85787203496733       -2.20185951505367
