13

P            0.00000000000000        0.00000000000000        0.61133995659400
C            0.00000000000000        1.61552088539454       -0.28240097972249
C           -1.39908190057490       -0.80776094276973       -0.28240097972249
C            1.39908190057490       -0.80776094276973       -0.28240097972249
H            0.00000000000000        1.47067089552895       -1.36485190335083
H           -0.88201093760863        2.18940484448825        0.00127699986181
H            0.88201093760863        2.18940484448825        0.00127699986181
H            1.27363890970361       -0.73533594783694       -1.36485190335083
H            2.33708583400521       -0.33085897625804        0.00127699986181
H            1.45507489692576       -1.85854686784596        0.00127699986181
H           -1.27363890970361       -0.73533594783694       -1.36485190335083
H           -1.45507489692576       -1.85854686784596        0.00127699986181
H           -2.33708583400521       -0.33085897625804        0.00127699986181
