31

N           -1.03119995645023       -1.11767417370662       -0.51874977839477
C            0.08547976491251       -0.35332964422186        0.02072142756399
C           -0.11257571653631        1.12496217752585       -0.33071018256210
O            0.42696947113421        1.65090658223896       -1.29956115997868
C            1.39358839952910       -0.89156676517555       -0.52662870478771
C            2.63896154815949       -0.19900414656609        0.02585482628885
C            2.68748216099565       -0.24156211185126        1.54979368011137
C            3.88237670199802       -0.85504345070726       -0.56298309617231
H           -0.95014305466845       -1.49003933200210       -1.45002101393371
H            0.03430118183564       -0.47479716953109        1.10187620110828
H            1.38444472701304       -0.78106468260432       -1.61369430917237
H            1.44393989022035       -1.95975214948280       -0.29467810598359
H            2.60983764232297        0.84216299761486       -0.29842532747621
H            2.61695537648848       -1.27106167538919        1.90795088936161
H            3.62780839466855        0.17286734898755        1.91257566179040
H            1.88068367039722        0.33218556419707        2.00439226163279
H            3.95001029576881       -1.89740111104710       -0.24528500125479
H            4.78741370001081       -0.34593615656171       -0.23317158469455
H            3.86075757067139       -0.83493017030551       -1.65242521433026
N           -0.95116183474563        1.76892064265953        0.51390802704953
H           -1.50511940492039        1.18100937810905        1.12471894979862
C           -1.37991824312999        3.12206295713814        0.22856297147074
H           -1.76202727306840        3.57530525520301        1.13842882753417
H           -0.52654193275778        3.69018607926540       -0.12904819401224
H           -2.15332142423703        3.15275784656020       -0.53979921584388
C           -2.21543399276385       -1.21007092902880        0.13494839991692
O           -2.41117660710516       -0.66543047682598        1.22172672538296
C           -3.27874739821427       -2.03610835247439       -0.54272725276228
H           -3.58250242200613       -2.82881728649488        0.13657358608696
H           -2.94993031263034       -2.47350943024644       -1.48193626353598
H           -4.14579688634776       -1.40488162716738       -0.72236302766576
