5

P            0.00000000000000        0.00000000000000       -2.12173484917309
C            0.00000000000000        0.00000000000000       -3.64382074115795
H            0.00000000000000        0.00000000000000       -4.71504266513204
Br           0.00000000000000        0.00000000000000        0.96636193160889
F            0.00000000000000        0.00000000000000        2.73125680581713
