7

C           -1.00397310439113       -0.23174510101360        0.00000000000000
N           -0.36247430158537        0.94035920411290        0.00000000000000
N            0.88778630388296        0.52425610229297        0.00000000000000
N            1.05292150460522       -0.79112610346019        0.00000000000000
N           -0.17159420075051       -1.28817360563416        0.00000000000000
H           -2.07447870907327       -0.31082200135945        0.00000000000000
H            1.67181250731210        1.15725150506154        0.00000000000000
