4

P            0.00000000000000        1.00618900438915        0.00000000000000
F           -0.73959300318226        2.46192401072639        0.00000000000000
H           -0.77519100334935        0.41744400181717        1.03171000448099
H           -0.77519100334935        0.41744400181717       -1.03171000448099
