27

N            0.19978104171924       -1.00827568057785       -1.84638158191901
H            0.45444896461556       -1.96033930109924       -1.62046007062819
C           -1.17499764771747       -0.73727085118604       -1.91074450806760
O           -1.98959463875456       -1.61985165020791       -1.70332735068521
C           -1.47266313726717        0.64756912266235       -2.23266845518040
H           -2.50230427713912        0.95206402195131       -2.30633327315923
C           -0.46406130329357        1.51937584086122       -2.43533712076650
H           -0.63438371287800        2.55805628213111       -2.67639204193476
N            0.84967993976547        1.14240455347793       -2.34339745250642
H            1.59374390685616        1.80529261153005       -2.48426815939442
C            1.25831284849192       -0.14412462094851       -2.03398401138281
O            2.42635567292149       -0.46530285841501       -1.93834851233064
C            1.06077452950669       -1.02709674016771        1.72851541240438
H            1.51462700623649       -1.11915297293791        0.74053292876538
H            1.60527699078619       -1.69107696018611        2.39771303714167
C            1.11508799676672        0.43885515725680        2.16145136346148
H            2.07337791952668        0.91175405797952        1.95072708981575
H            0.92697272420499        0.52049269350613        3.23467441974290
C           -0.05226350314604        1.05166959100582        1.39068021730264
H            0.22204075303506        1.14045118788071        0.33720867025513
H           -0.33667790690413        2.04281064557329        1.74231420666365
C           -1.16920791614872        0.01409775588404        1.56170851912332
H           -1.89474714330810        0.03771160786958        0.75033666474523
H           -1.71329350749678        0.21879489689313        2.48395707000793
C           -0.44617162258293       -1.35244997839078        1.66536539905312
H           -0.68883615106962       -1.99660605748637        0.82200578453750
H           -0.76127782672646       -1.87985235485958        2.56445175493512
