5

O            2.59638981547418        0.51210996365644        1.05972992483354
Cl           1.95095986130821        0.92670993441007        2.34948983302634
O            2.89232979466684        0.83016994079769        3.45532975489319
O            1.40415990043688        2.29117983743260        2.20005984403431
O            0.78306994422127       -0.02336999813075        2.59335981608675
