12

N           -0.02545425455318       -1.30448624070635        0.00000000000000
H           -0.03961544804769       -2.31544688065012        0.00000000000000
C           -1.27698528726476       -0.67112817837585        0.00000000000000
O           -2.30298845232074       -1.32898832878722        0.00000000000000
C           -1.18724170992592        0.77869307221143        0.00000000000000
H           -2.09711894131405        1.35351371604007        0.00000000000000
C            0.02279462698687        1.37433564255239        0.00000000000000
H            0.14138800638428        2.44774450520705        0.00000000000000
N            1.18590826401543        0.65196725072601        0.00000000000000
H            2.08279493909588        1.10854104081138        0.00000000000000
C            1.22898259538499       -0.73169195342283        0.00000000000000
O            2.26753566155889       -1.36305364560596        0.00000000000000
