30

B            1.10957443515072        0.36385284821504        0.52397260955186
N           -0.01010037826864        1.23520002227158        0.63011222626468
B            0.00222112842597        2.53236895954522        0.05342293020456
N            1.32941190812295        3.02079591303303       -0.26421890315237
B            2.50310549532859        2.18152965698110       -0.26724123266029
N            2.40787825789957        0.77596796207599        0.10089846367343
B           -1.14972052561543        0.38969583239203        0.52675956289579
N           -2.43836326441999        0.82691321055868        0.11063478155559
B           -2.50778624213227        2.23560440645062       -0.25100305653155
N           -1.31585159398416        3.05006092257072       -0.25338262822312
N            0.67190953844019       -0.99615948322839        0.57685804944468
N           -0.74315254106902       -0.98463455916444        0.56639104864297
B            1.45256475671125       -2.04428110595623        0.03360971518696
N            2.83146865875716       -1.65977136984010       -0.21791436145128
B            3.31269886576077       -0.30417893307679       -0.24213240809234
B           -1.53486642237043       -2.03658864621730        0.04364368584008
B           -0.63722861402091       -3.44197786588992       -0.33703901075226
N            0.78276792918831       -3.28695033680448       -0.29892951360381
B           -3.36460959418127       -0.23991275093975       -0.22947029204087
N           -2.90287423706850       -1.60100714595483       -0.20759440382939
H           -4.47554129693917        0.01259227281787       -0.57819041319957
H           -3.56464162448243       -2.29635713262384       -0.51281189290164
H           -1.05202397480017       -4.50979239347654       -0.68152039063263
H            1.34629377475348       -4.06654213554972       -0.60708235059155
H            3.48530197091219       -2.36506261474829       -0.51803240976607
H            4.42773820769576       -0.07821155548283       -0.59394508055149
H            3.53941192965856        2.63737460181536       -0.63793452674667
H            1.45638605674707        3.95010723566684       -0.63220398419015
H           -1.42539107291188        3.98291943483584       -0.61805616615434
H           -3.53658553128828        2.71644874972357       -0.61063307177701
