36

N            2.83733475997344       -0.45535102028263        0.12782738401589
C            1.47622558625969       -0.00982851255965       -0.00078153167978
C            1.50341395761312        1.45017251251914       -0.41521924040612
O            2.43708315620004        2.18580574819365       -0.10074876516979
C            0.70671199121442       -0.16453205592201        1.33032371002397
H            3.53474969294489        0.26230038212235        0.25086466472217
H            0.98176573641208       -0.61601032387642       -0.75965268104611
H            0.81416896118310       -1.20740091292896        1.63296258179128
H            1.19230111138806        0.46286503168190        2.08015562507349
C            3.14214675701824       -1.77565937268628        0.09556572439327
O            2.28203943089040       -2.64106711814710       -0.04880208005746
N            0.42596327913297        1.85635153422582       -1.12342100760257
H           -0.34568401967278        1.21038261347627       -1.19012587224720
C            0.18753807281459        3.25881935810306       -1.39015173977650
H           -0.36300854354780        3.36557324330617       -2.32060032345327
H           -0.37450815545102        3.73134085864457       -0.58317025730335
H            1.14919133788387        3.75394555384809       -1.47888049973225
C            4.60556458826813       -2.11203707986466        0.24497823618370
H            4.72783394343741       -2.74502451342568        1.12069272635153
H            5.23818100103406       -1.23351729613051        0.34347824356173
H            4.91782432960003       -2.68639130304588       -0.62380693095387
C           -0.72671193731967        0.20259898798569        1.17599523354507
C           -1.37859784663567        1.29501658255468        1.70609120595713
C           -1.66791542654695       -0.45007187057411        0.31824124993088
H           -1.01292007244069        2.04428860139639        2.38953734731372
C           -2.87764001185078        0.29476316437033        0.36912409687722
C           -1.60108937647886       -1.60089853475396       -0.48895228623510
H           -3.36026575503665        2.02021937875531        1.50042309661806
C           -2.72624767192576       -1.96652150192675       -1.21064844514760
H           -0.69579688675229       -2.19523773123702       -0.52973706050674
N           -2.66514754734072        1.35116261763341        1.21993002795833
C           -4.01243194901706       -0.07851683240596       -0.35535793602253
C           -3.91704763850013       -1.21457868093386       -1.14559836865618
H           -4.93130848595785        0.49112867219699       -0.30486138941367
H           -4.77597053283954       -1.53228926975375       -1.72076507253937
H           -2.69601782706807       -2.84986290311473       -1.83369667388554
