13

C           -1.23057932466158        0.50086092870169        0.10676485309079
C           -1.21313982664616       -0.87689741049836        0.07966199552179
N            1.04747722698008       -1.33943774246078       -0.09695830392348
N            1.41930903839727       -0.13949866268781        0.31481259761724
C            0.94113033026225        1.02188955511058       -0.16660747227925
H           -1.55687387653684        1.05985231810853       -0.76315454453102
H           -1.33110863974324        1.02587966187884        1.04980541213367
H           -1.46424383522059       -1.41746072795008       -0.82546535955648
H           -1.24165947840831       -1.45884020034093        0.99008601759830
H            0.85567971289703       -1.25245677158967       -1.09541294685697
H            1.69857774147772       -0.13681874577603        1.28956059046196
H            1.24615637953474        1.92097764457712        0.35709060497455
H            0.82927455166763        1.09195015292689       -1.24018344425111
