30

C           -0.43523915361135       -1.93138036189191        1.23782485911539
H           -0.56963596387756       -2.78788500007272        1.89718956472673
H           -0.62842492031546       -1.04011384343155        1.83231136685775
C            0.99491944753498       -1.93590287286020        0.63832820157438
H            1.53513531213441       -2.82334601541464        0.96662100403475
H            1.57931607571821       -1.07297204617997        0.95314897647658
C            0.80205269822154       -1.97983900283397       -0.88536870410780
H            1.62338696494581       -2.47515833295677       -1.40084104599176
H            0.72534159371330       -0.96611426600984       -1.28391630123227
C           -0.54236428940456       -2.68434528393787       -1.05591508354674
H           -0.42885578434991       -3.75161634135379       -0.85115707761823
H           -0.96502944811007       -2.57651866925997       -2.05383480915223
C           -1.39071783925492       -2.03202397128611        0.03492700579777
H           -2.30072547967409       -2.58353007823036        0.26526646919237
H           -1.68525775789808       -1.03386731855012       -0.29388664283994
C           -0.80205269822154        1.97983900283397       -0.88536870410780
H           -0.72534159371330        0.96611426600984       -1.28391630123227
H           -1.62338696494581        2.47515833295677       -1.40084104599176
C           -0.99491944753498        1.93590287286020        0.63832820157438
H           -1.57931607571821        1.07297204617997        0.95314897647658
H           -1.53513531213441        2.82334601541464        0.96662100403475
C            0.43523915361135        1.93138036189191        1.23782485911539
H            0.62842492031546        1.04011384343155        1.83231136685775
H            0.56963596387756        2.78788500007272        1.89718956472673
C            1.39071783925492        2.03202397128611        0.03492700579777
H            1.68525775789808        1.03386731855012       -0.29388664283994
H            2.30072547967409        2.58353007823036        0.26526646919237
C            0.54236428940456        2.68434528393787       -1.05591508354674
H            0.96502944811007        2.57651866925997       -2.05383480915223
H            0.42885578434991        3.75161634135379       -0.85115707761823
