10

N           -1.19297872332713        0.00000000000000       -0.92589032220471
C           -1.18150934813155        0.00000000000000        0.40877863821168
C            0.00000000000000        0.00000000000000        1.13883640708196
C            1.18150934813155        0.00000000000000        0.40877863821168
N            1.19297872332713        0.00000000000000       -0.92589032220471
C            0.00000000000000        0.00000000000000       -1.52187514039749
H           -2.14884594718052        0.00000000000000        0.90153351770668
H            0.00000000000000        0.00000000000000        2.22104540274395
H            2.14884594718052        0.00000000000000        0.90153351770668
H            0.00000000000000        0.00000000000000       -2.60685033685574
