6

C            0.66144094086115        0.00000000000000        0.00000000000000
C           -0.66144094086115        0.00000000000000        0.00000000000000
H            1.23091961440893       -0.92311063859736        0.00000000000000
H            1.23091961440893        0.92311063859736        0.00000000000000
H           -1.23091961440893       -0.92311063859736        0.00000000000000
H           -1.23091961440893        0.92311063859736        0.00000000000000
