23

C           -0.39390140666291       -1.69644227059414        2.27886083803015
Al          -0.24379941764746        0.00994360775512        1.31136890669686
C           -0.24379941764746        1.79560748096731        2.14027984812475
C            1.45659646201759       -0.21714837579154        0.00000000000000
Al          -0.24379941764746        0.00994360775512       -1.31136890669686
C           -0.39390140666291       -1.69644227059414       -2.27886083803015
H           -1.37187333705108        0.03033760638693        0.00000000000000
C           -0.24379941764746        1.79560748096731       -2.14027984812475
H           -1.18699235062233        1.99835046684679       -2.65257181169933
H           -0.09474542811415        2.59270342485841       -1.40913490018817
H            0.54792852615737        1.88764747487645       -2.88835379470467
H           -1.29954434227283       -1.73364826837550       -2.88820779471218
H            0.45100453351436       -1.84233626042051       -2.95667479017481
H           -0.42011440512583       -2.55272421003392       -1.60224088641847
H           -1.18699235062233        1.99835046684679        2.65257181169933
H            0.54792852615737        1.88764747487645        2.88835379470467
H           -0.09474542811415        2.59270342485841        1.40913490018817
H           -1.29954434227283       -1.73364826837550        2.88820779471218
H           -0.42011440512583       -2.55272421003392        1.60224088641847
H            0.45100453351436       -1.84233626042051        2.95667479017481
H            1.96282842575898        0.26658158967296        0.84542394010714
H            1.75754744035803       -1.26455530170127        0.00000000000000
H            1.96282842575898        0.26658158967296       -0.84542394010714
