6

C           -0.66524299900729        0.00000000000000        0.00000000000000
C            0.66524299900729        0.00000000000000        0.00000000000000
H           -1.23725621399428        0.92423657056627        0.00000000000000
H           -1.23725621399428       -0.92423657056627        0.00000000000000
H            1.23725621399428        0.92423657056627        0.00000000000000
H            1.23725621399428       -0.92423657056627        0.00000000000000
