9

C            0.00000000000000       -1.39649374365867        0.01611279082609
S            0.00000000000000        0.00000000000000        1.19861269081134
C            0.00000000000000        1.39649374365867        0.01611279082609
H            0.00000000000000       -2.31224638580521        0.60621508361595
H           -0.89236330215308       -1.38056214085385       -0.61081710992386
H            0.89236330215308       -1.38056214085385       -0.61081710992386
H            0.00000000000000        2.31224638580521        0.60621508361595
H           -0.89236330215308        1.38056214085385       -0.61081710992386
H            0.89236330215308        1.38056214085385       -0.61081710992386
