8

Si          -1.17088391707789        0.00000000000000       -0.00000977972403
H           -1.68513648962736        0.00000165314961        1.38993582656194
H           -1.68368807180409        1.20404408731821       -0.69547244538622
H           -1.68368807180409       -1.20404574152617       -0.69546958147915
Si           1.17088391707789        0.00000000000000        0.00000977972403
H            1.68513648962736       -0.00000165314961       -1.38993582656194
H            1.68368807180409        1.20404574152617        0.69546958147915
H            1.68368807180409       -1.20404408731821        0.69547244538622
