13

C           -1.19880228038615        0.69212881928608       -0.27883568420737
C           -1.19880228038615       -0.69212881928608       -0.27883568420737
C            0.00000000000000       -1.38425763857216       -0.27883568420737
C            1.19880228038615       -0.69212881928608       -0.27883568420737
C            1.19880228038615        0.69212881928608       -0.27883568420737
C            0.00000000000000        1.38425763857216       -0.27883568420737
H           -2.13315501509838       -1.23157762219025       -0.27883568420737
H            0.00000000000000       -2.46315524438050       -0.27883568420737
H            2.13315501509838       -1.23157762219025       -0.27883568420737
H            2.13315501509838        1.23157762219025       -0.27883568420737
H            0.00000000000000        2.46315524438050       -0.27883568420737
H           -2.13315501509838        1.23157762219025       -0.27883568420737
Ar           0.00000000000000        0.00000000000000        3.34602821048840
