15

N            0.00000000000000        0.00000000000000        4.10930670843095
C            0.00000000000000        0.00000000000000        5.25188262716821
H            0.00000000000000        0.00000000000000        6.31918255106861
Br           0.00000000000000        0.00000000000000        0.91992393466496
C            0.00000000000000        0.00000000000000       -0.97003493105023
C            0.00000000000000        1.20496191449825       -1.65468888229931
C            0.00000000000000        1.19899391476905       -3.04157378421937
C            0.00000000000000        0.00000000000000       -3.73799973444236
C            0.00000000000000       -1.19899391476905       -3.04157378421937
C            0.00000000000000       -1.20496191449825       -1.65468888229931
H            0.00000000000000        2.13773884816849       -1.10710092152650
H            0.00000000000000        2.13953084805454       -3.57758674599363
H            0.00000000000000        0.00000000000000       -4.82024665761001
H            0.00000000000000       -2.13953084805454       -3.57758674599363
H            0.00000000000000       -2.13773884816849       -1.10710092152650
