5

Si           0.00000000000000        0.00000000000000        0.00000000000000
F            0.91020179434557       -0.91020179434557        0.91020179434557
F           -0.91020179434557        0.91020179434557        0.91020179434557
F           -0.91020179434557       -0.91020179434557       -0.91020179434557
F            0.91020179434557        0.91020179434557       -0.91020179434557
