24

F           -2.26832847792112       -1.95820289756470       -0.32302509341283
F           -2.70369059682528        0.72555038617338       -0.25311904110708
C            0.03997041617482       -1.62064906908832        0.00062752900274
C           -1.24671457345283       -1.12233146190881       -0.15818895669188
C           -1.46896063842488        0.24828161708592       -0.12344822353993
C           -0.40484317777068        1.12011072989909        0.06832178829882
C            0.88286916386146        0.62230355572181        0.22323999497640
C            1.10416428582935       -0.74884205527525        0.19224598684084
F           -0.62015774371242        2.43073273263143        0.11306010749450
F            1.90123229631553        1.45642417637004        0.39937748474678
F            0.25082152909703       -2.93383649783189       -0.01016912504448
F            2.33322386520495       -1.22739058736831        0.35478268055173
H           -1.71926562951965       -1.31307060474305        3.23511469414961
H           -2.11712042825977        1.13156639094919        3.25080710021824
C            0.40947808479096       -1.12597989492476        3.47677449520656
C           -0.88701361087958       -0.63003723075563        3.34208985161749
C           -1.11119046386008        0.74639679126456        3.35279068966429
C           -0.03941781617241        1.62644268511367        3.49961556630647
C            1.25637115449506        1.13010074094279        3.63484053889791
C            1.48110857747801       -0.24578543207501        3.62347924184822
H           -0.21365013093445        2.69376692478188        3.50737057334039
H            2.08758271513058        1.81259383292785        3.74642047438593
H            0.58363092755266       -2.19377586359504        3.47068930417995
H            2.48638040487482       -0.63078506975890        3.72709548530141
