17

C            0.00000000000000        1.83370886968925       -0.65002807147966
C            0.83543094072274        0.97711593068592        0.29354486153366
C            0.00000000000000        0.00000000000000        1.11885380269742
C           -0.83543094072274       -0.97711593068592        0.29354486153366
C            0.00000000000000       -1.83370886968925       -0.65002807147966
H            0.61388395645586        2.57798581684872       -1.15481003568709
H           -1.58854188704352       -0.43094396928209       -0.27679409814839
H           -1.38612390169825       -1.62597288462483        0.97650981300737
H           -0.78240994434946        2.36106383240914       -0.10314811012676
H           -0.48280296552669        1.23077991286550       -1.41772301684715
H           -0.66370195271122        0.57114695930702        1.77302175639933
H            0.66370195271122       -0.57114695930702        1.77302175639933
H            1.58854188704352        0.43094396928209       -0.27679409814839
H            1.38612390169825        1.62597288462483        0.97650981300737
H           -0.61388395645586       -2.57798581684872       -1.15481003568709
H            0.48280296552669       -1.23077991286550       -1.41772301684715
H            0.78240994434946       -2.36106383240914       -0.10314811012676
