7

C           -0.77285106069074        0.41760152537966        0.00000000000000
C            0.45764011199410       -0.39898850757425        0.00000000000000
F            1.60896674456803        0.44055625129497        0.00000000000000
H           -1.18292354764385        0.79285219164977       -0.92838990097473
H           -1.18292354764385        0.79285219164977        0.92838990097473
H            0.53604564970816       -1.02243682619995       -0.89255086522450
H            0.53604564970816       -1.02243682619995        0.89255086522450
