16

C            1.25520100548994       -0.41246700180403        0.22714800099349
H            0.76579500334940       -1.26257700552221       -0.23598800103216
O            2.61485601143674       -0.46058500201448       -0.20490300089620
C            0.57977000253577        0.89349800390794       -0.17985900078666
H            1.18094700516517        1.72004600752306        0.21258400092979
H            0.60623600265153        0.97953600428425       -1.26883400554957
C           -0.85681500374750        1.06365600465217        0.32378900141617
H           -1.17504300513936        2.09047000914321        0.12909100056461
H           -0.89841700392946        0.91864800401794        1.40616300615021
H            3.07611601345418        0.26695800116761        0.22098900096655
H            1.18398100517845       -0.54511000238418        1.31185500573774
C           -1.87771800821268        0.14073900061556       -0.32003100139974
H           -2.88590701262226        0.47750300208848       -0.06116600026752
H           -1.77648000776989        0.17969700078595       -1.41003700616716
O           -1.66193700726891       -1.18637000518889        0.16142100070601
H           -2.30321201007369       -1.76208700770694       -0.26308400115067
