14

N           -1.45393403243726        0.19994431869110       -0.75771504364824
H           -0.62533835256619       -0.38490917335765       -0.80805712166714
H           -2.11576155056569       -0.18971522318982       -1.41595195363955
C           -2.01395143295479        0.12042652982093        0.58966298263131
H           -2.90803032035936        0.73827262391275        0.65088387463927
H           -2.27803810588483       -0.88681564363545        0.92716855007332
H           -1.29556820307132        0.52770283561608        1.29880363827482
N            1.58360060669090       -0.72649313813966       -0.60523901326163
H            1.87986925573254       -0.45195542273172       -1.53322419066517
H            2.20715022938380       -1.47418340107858       -0.33004416982660
C            1.74383057126358        0.40871737414073        0.30843622597273
H            1.47364028636049        0.09402161624647        1.31408926333109
H            2.75124081087297        0.83049390335079        0.34540795700282
H            1.05129023753513        1.19449280035401        0.01577900078298
