6

N           -2.68744700057372        0.00639789646965        0.00000000000000
C           -1.51544312493663        0.06789043728946        0.00000000000000
C           -0.18796661782572        0.22785439660218        0.00000000000000
C            1.08885789534990       -0.02516078525401        0.00000000000000
H            1.47089864977163       -1.04653932176807        0.00000000000000
H            1.83110019821453        0.76955737666079        0.00000000000000
