15

C           -0.00618256803372        0.71925785162404        0.00000000000000
C            1.19598184955537        0.00417996918582        0.00000000000000
C            1.20274936394999       -1.38579724400199        0.00000000000000
C            0.00215038981874       -2.09210084496682        0.00000000000000
C           -1.20032157066466       -1.39442726573556        0.00000000000000
C           -1.20134940108257       -0.00153827201636        0.00000000000000
C           -0.00250646909789        2.22798261596777        0.00000000000000
H            2.13729671623884        0.54399826953001        0.00000000000000
H            2.14597978615431       -1.91979095591383        0.00000000000000
H            0.00598305363919       -3.17555874269830        0.00000000000000
H           -2.14083521709075       -1.93309497603191        0.00000000000000
H           -2.14526847786283        0.53277925197219        0.00000000000000
H           -1.01769712849091        2.62730132522991        0.00000000000000
H            0.51200983648344        2.62340450892750        0.88016183450972
H            0.51200983648344        2.62340450892750       -0.88016183450972
