11

C           -0.59799629500912        0.39422635831690       -0.19084658107082
C            0.68127285779969       -0.41347196517179        0.02060303241620
N            1.81490644292912        0.31960531839453        0.19341281241817
N           -1.73711344515598       -0.35418581566741        0.31825288693516
O            0.68394255673322       -1.63099032001302       -0.01319412171626
H           -2.59389781940163       -0.08713481525883       -0.14932952670561
H           -1.57573958641182       -1.34407837902404        0.15879802250719
H            1.79515136835051        1.31744470575714        0.31235795761577
H            2.69022462394006       -0.16647167701318        0.30503919069142
H           -0.63997485215612        0.60405857989667       -1.27248646493550
H           -0.52077585161796        1.36099800978302        0.31739279184428
