4

O           -0.60263613873081        0.00000000000000        0.00000000000000
C            0.60396377555993        0.00000000000000        0.00000000000000
H            1.18444673428514       -0.93695393365831        0.00000000000000
H            1.18444673428514        0.93695393365831        0.00000000000000
