23

C            1.54657594003154        1.05252541638870        0.33969553535957
C            0.34432507215883        0.46512830492599        1.10642154473592
N           -0.43820132166599       -0.58284737800831        0.40598910456770
O            1.76534466158272        0.67953748807882       -0.87650628917380
O            2.17469235875758        1.90529552789299        0.91412959332224
H            0.70567927787054        0.06434366091289        2.05647113483696
C           -1.28767566174641        0.11922654332051       -0.58067166556104
C           -1.41040581993422        1.57069969896025       -0.07961393494101
C           -0.70745947721204        1.56544238268234        1.28217345862465
H           -0.80100934651541        0.05757988912545       -1.55490976395401
H           -2.24632818387410       -0.39466003444204       -0.65514183003818
H           -0.90708879837457        2.25166138328241       -0.76717640886211
H           -2.44939652091205        1.89260257660728       -0.00832588921604
H           -0.26278142763320        2.52207205766433        1.55073558801221
H           -1.40435586743993        1.29113411810387        2.08084735325084
C            0.35884259921238       -2.10596481519442       -0.30670106904624
H           -0.60324929973743       -2.57110432510030       -0.51671827262900
H            0.78281102531069       -2.46513195284116        0.62846596021063
H           -1.04571479762516       -0.99579320327658        1.10968526206753
H            0.87566430069946       -2.00695213204840       -2.37714768195475
C            1.24112774901019       -1.83595829921346       -1.37106535385968
H            2.27735240704316       -2.11798162810079       -1.21779671890193
H            1.49125113099336       -0.36085527972051       -1.16283965685051
