22

N            1.44957301536593       -0.00566520003112       -1.86435854525957
C            0.77809635085463       -1.14428117033854       -2.08674106541677
H            1.32722872325511       -2.06081716115461       -1.90986944807215
C           -0.54587086820603       -1.19000086319475       -2.51688529923439
H           -1.03038315179628       -2.14261048241223       -2.67707814467161
C           -1.22038627199557        0.00784476401467       -2.73139820071709
H           -2.24854597021123        0.01311619719761       -3.06583520498243
C           -0.53774753234270        1.19880131516678       -2.50454024208772
H           -1.01581586469507        2.15626826946600       -2.65482171107944
C            0.78570610435946        1.13968923932434       -2.07468239050980
H            1.34091301785373        2.05062108154870       -1.88810396287081
N            0.57692542822881        0.00601181480850        3.89741704070633
C            1.44759338352867        0.00039902422376        2.87800407980072
H            2.49544988305064        0.00164754905985        3.15230685269810
C            1.07420767392394       -0.00666873592729        1.53617610326824
H            1.82166828400769       -0.01083275466920        0.75507651070349
C           -0.28184078654528       -0.00808280009521        1.22376065940673
H           -0.61156944239754       -0.01353827687869        0.19347928443180
C           -1.19994398541409       -0.00236771426383        2.26893019919743
H           -2.26439394606859       -0.00321710454271        2.08019442666762
C           -0.72434021548657        0.00454994000875        3.57788895611615
H           -1.41652382926962        0.00913306868923        4.41108010190519
