33

N           -2.72463366937114       -0.81564656495770       -0.76554733912709
C           -1.45910445339449       -0.35443129300525       -0.26325622014108
C           -1.43915024409152        1.15938003246431       -0.40287129106675
O           -2.10081537026997        1.72673479270432       -1.26965633021501
C           -0.28357282911475       -0.97449055741414       -1.05226430202820
C            1.03960205654373       -0.55782167475593       -0.48653755968892
C            1.47177839344009       -1.06617267746209        0.74462134147323
C            1.82675500352882        0.41108863988302       -1.11169610707272
C            2.64561885900810       -0.61577191403987        1.33992551751547
C            3.00762271273999        0.86583053360573       -0.52912943008658
C            3.41727286014386        0.35604147912751        0.70261703656512
O            4.56039739657621        0.76117667729808        1.33077230053672
H           -3.22952687569676       -0.17457975259747       -1.35798043815792
H           -1.36383785509465       -0.65197335880647        0.78214719804285
H           -0.41036701414960       -2.05579130087715       -0.99770949139072
H           -0.37513504970568       -0.66534880515554       -2.09468277402299
H            0.88165898212494       -1.82878985015824        1.23955958743507
H            1.51007317167518        0.82057138837437       -2.06323111740153
H            2.98209487414013       -1.01271208537372        2.28749569869787
H            3.60985096476452        1.61391203221747       -1.03139622072577
H            5.00114501529437        1.40697508201123        0.76879111178986
N           -0.63660064900452        1.80492397656110        0.47290156965817
H           -0.01288689977287        1.23861208418771        1.02568315672450
C           -0.33189154394230        3.21131046452419        0.30914348380052
H           -1.21036723061630        3.70492930774055       -0.09352176673069
H           -0.08283759630749        3.64282883808447        1.27430650320199
H            0.50103334738311        3.36333617606128       -0.37876420269461
C           -3.19487294029786       -2.04838202496552       -0.45091387810427
O           -2.56943279006209       -2.82003092163613        0.27061786017488
C           -4.53558947644637       -2.40513323423782       -1.04451756682347
H           -4.41635467143710       -3.29546482978472       -1.65733538548869
H           -4.96328814032332       -1.60744896071516       -1.64643939544929
H           -5.21720037370296       -2.65113069677450       -0.23394257711689
