16

C           -0.67641173746797        0.03409316517907        1.46571740577618
O            1.08501983756727        0.34232971360351       -0.15648306283309
B           -0.03909811529636        1.30195575192001       -0.69105474481708
F            0.58219776563361        2.34690657899652       -1.40124281452496
H           -1.00019188455212        0.01092590074943        2.51215026861262
Al           0.42870743279734        0.74701609468605       -3.36469660999239
H            1.33161273567995        0.92122569076598        1.82746513373598
H            1.38670294725485       -0.83622981524008        1.52093547464780
O           -0.48934393819124       -1.78681496281414       -0.36057514408146
B           -1.16399316637920       -1.33930784322633        0.71785335096218
Be           0.48999031345351       -0.85551960994881       -1.02592675528842
C            0.86330977659536        0.09568244858231        1.28536806709407
H           -2.09732127645984       -1.95061009741973        1.15847980087319
H           -0.61965265717953        0.57311861731680       -1.61268859732020
B           -1.15500254311290        1.22560065328683        0.58982669422909
F            1.07347450965724       -0.83037228643736       -2.46512846707349
