5

C            0.00000000000000        0.78242921169171        0.00000000000000
H            0.00000000000000        1.35192117138833       -0.92549693429850
H            0.00000000000000        1.35192117138833        0.92549693429850
O           -0.75710394610085       -0.37885670556827        0.00000000000000
O            0.75710394610085       -0.37885670609745        0.00000000000000
