12

C           -2.10355584352097       -0.66462818429243        0.00000000000000
C           -1.01429256801566        0.37028488280675        0.00000000000000
O            0.21520640090556       -0.23826726876553        0.00000000000000
C            1.34806093707014        0.55833416888174        0.00000000000000
C            2.54953712697882        0.00433570369971        0.00000000000000
O           -1.16549919590113        1.56203653583352        0.00000000000000
H           -3.07177923835861       -0.17081536090401        0.00000000000000
H           -2.01001504464049       -1.30397535384002        0.87977689585215
H           -2.01001504464049       -1.30397535384002       -0.87977689585215
H            1.15096989041172        1.62152163778054        0.00000000000000
H            2.68397839780460       -1.06939874580688        0.00000000000000
H            3.42740418190652        0.63454733844665        0.00000000000000
