20

C           -0.02070580009056       -0.76678770335374        0.00000000000000
C            0.02070580009056        0.76678770335374        0.00000000000000
C            0.69563770304255        1.31038850573132        1.25298740548026
C            0.69563770304255        1.31038850573132       -1.25298740548026
H           -1.01643260444563        1.11645720488311        0.00000000000000
C           -0.69563770304255       -1.31038850573132       -1.25298740548026
C           -0.69563770304255       -1.31038850573132        1.25298740548026
H            1.01643260444563       -1.11645720488311        0.00000000000000
H            0.80290410351171        2.39137931045931        1.19984040524781
H            0.12851110056208        1.08171070473114        2.14975850940252
H            1.69171290739914        0.88294840386180        1.37084230599573
H            0.12851110056208        1.08171070473114       -2.14975850940252
H            0.80290410351171        2.39137931045931       -1.19984040524781
H            1.69171290739914        0.88294840386180       -1.37084230599573
H           -0.80290410351171       -2.39137931045931        1.19984040524781
H           -0.12851110056208       -1.08171070473114        2.14975850940252
H           -1.69171290739914       -0.88294840386180        1.37084230599573
H           -0.80290410351171       -2.39137931045931       -1.19984040524781
H           -1.69171290739914       -0.88294840386180       -1.37084230599573
H           -0.12851110056208       -1.08171070473114       -2.14975850940252
