6

C           -0.78127617862961        0.15172809808137       -0.74198238232271
Cl           0.13225690905353       -0.00375317032678       -2.16516770386774
C            0.05350892342683        0.01612732283598        0.46019073705262
H            1.14015848711027        0.00531750106664        0.35402207711503
H           -0.26717550153010        0.76492042082218        1.18948179190154
H           -0.27747263943092       -0.93434017247939        0.90345548012127
