13

C            1.05371992536747       -0.01339999890465       -0.38775997243896
N           -0.18458998711788       -0.01337999918114        0.25190998197986
C            0.03325999740445       -0.01336999879021        1.58745988739640
N            1.34704990412898       -0.01337999918114        1.80793987154420
C            2.00904985729747       -0.01337999918114        0.59897995759960
C           -1.50575989289005       -0.01337999918114       -0.39686997191227
H            1.66473988162272       -0.01337999918114        2.77426980327798
H           -0.70736994984841       -0.01336999879021        2.37754983140873
H            3.08824978073062       -0.01336999879021        0.53595996203070
H            1.13699991919811       -0.01340999929558       -1.46621989604791
H           -1.36551990279454       -0.01335999892845       -1.48084989488203
H           -2.06566985350009       -0.90899993529222       -0.10608999229466
H           -2.06568985322360        0.88221993720643       -0.10606999257115
