6

H            2.30499448637028        2.01523543670377       -0.28866603942916
O            3.23686364034819        2.37650639131743       -0.26222524128968
C            4.08715227956713        1.23732449191262       -0.32691743684503
H            5.05209252103533        1.49309772418303        0.14605499940127
H            3.63898770166032        0.37456522338239        0.19473749619348
H            4.29416442535020        0.93841915338721       -1.37563219248087
