11

C           -0.28592893482062        0.91847060719450        1.07366555504983
C           -0.40340225099963       -0.65295069550380       -0.34458620862505
C            0.72661472782795       -0.73633365422394       -1.20299523541390
H           -0.13708991567517        1.91117655371341        0.64668594331407
H            0.45201151482267        0.70521263742726        1.84598096168341
H            0.47795369515571        0.21427836850614       -0.13016861689054
H           -1.29547111066944        0.82563069935004        1.46902785837289
H           -1.33205140714957       -0.26132367602690       -0.73762029104125
H           -0.51717555408177       -1.38327446439899        0.44550996056927
H            0.74295294935440       -0.19221662484642       -2.13362018009314
H            1.57158628623548       -1.34866975119130       -0.93187974692555
