7

Bi          -0.60393610019658       -1.67154145293644        0.00000000000000
H            0.09993084997704       -2.70668537909288        1.24292691168238
H            0.09993084997704       -2.70668537909288       -1.24292691168238
H            0.86298579598919       -0.69101052262919        0.00000000000000
H           -0.58058710140509        3.50884817943225        0.00000000000000
S           -0.60393610019658        2.17582227415407        0.00000000000000
H            0.72561180585496        2.09125228016507        0.00000000000000
