4

N            0.00000000000000        0.00000000000000        0.11389499208158
H            0.00000000000000        0.93803193325490       -0.26575498134729
H            0.81235894238819       -0.46901596662745       -0.26575498134729
H           -0.81235894238819       -0.46901596662745       -0.26575498134729
