12

C            1.20697163746018        0.69684539979188        0.00000000000000
C            1.20697163746018       -0.69684539979188        0.00000000000000
C            0.00000000000000       -1.39369079958376        0.00000000000000
C           -1.20697163746018       -0.69684539979188        0.00000000000000
C           -1.20697163746018        0.69684539979188        0.00000000000000
C            0.00000000000000        1.39369079958376        0.00000000000000
H            2.14349894189105       -1.23754969110847        0.00000000000000
H            0.00000000000000       -2.47509938221695        0.00000000000000
H           -2.14349894189105       -1.23754969110847        0.00000000000000
H           -2.14349894189105        1.23754969110847        0.00000000000000
H            0.00000000000000        2.47509938221695        0.00000000000000
H            2.14349894189105        1.23754969110847        0.00000000000000
