13

C           -0.69511673048595       -1.20397749439283       -0.03990021164164
N            0.00000000000000        0.00000000000000       -0.46512142468111
C           -0.69511673048595        1.20397749439283       -0.03990021164164
C            1.39023346097191        0.00000000000000       -0.03990021164164
H           -1.71400259985375       -1.20203597219107       -0.43275205269161
H           -0.75292359449846       -1.30410191988873        1.06044479191880
H           -0.18399238825332       -2.08538777972145       -0.43275205269161
H           -1.71400259985375        1.20203597219107       -0.43275205269161
H           -0.18399238825332        2.08538777972145       -0.43275205269161
H           -0.75292359449846        1.30410191988873        1.06044479191880
H            1.89799498810707       -0.88335180753038       -0.43275205269161
H            1.89799498810707        0.88335180753038       -0.43275205269161
H            1.50584718899693        0.00000000000000        1.06044479191880
