8

Pb          -0.00560662461187       -1.82924474495970        0.00000000000000
H            0.77873131975438       -2.46128270032209        1.40038490050061
H           -1.64529150837902       -2.36473470713782        0.00000000000000
H            0.06084137087489       -0.11358786708741        0.00000000000000
H            0.77873131975438       -2.46128270032209       -1.40038490050061
O           -0.00560662461187        2.68457993464209        0.00000000000000
H            0.77466731973874        3.24102589487943        0.00000000000000
H           -0.73646657251962        3.30452689030759        0.00000000000000
