5

N           -0.38962450170412       -0.49757000217625        0.00000000000000
O           -0.37767170165185        0.91540970400378        0.00000000000000
H            0.11414590049925       -0.81334190355736        0.82071460358961
H            0.11414590049925       -0.81334190355736       -0.82071460358961
H            0.53900430235747        1.20884400528719        0.00000000000000
