59

H           -1.23416081061220        0.36693461310223       -4.97286224009934
O           -0.81849334019620       -0.34169113671057       -4.45678067658924
C           -1.68775007830154       -0.65845261404911       -3.35980105452026
H           -2.55713021682822       -1.23240357332785       -3.70765812991103
H           -2.04665675274688        0.25363172110617       -2.86527568979964
C           -0.92440723289862       -1.46088295739030       -2.33129592794252
H           -1.60989698409745       -1.70229914043197       -1.50820258614284
O           -0.43947116726421       -2.70883976884290       -2.91457528606718
C            0.80993474412109       -3.06342254370642       -2.34606272649414
H            0.76488184735961       -4.06822037195329       -1.92326025655397
N            1.84916837031359       -3.10466484066395       -3.42193855025054
C            1.69160698132670       -2.43858948794435       -4.61014116582849
H            0.76008014785311       -1.88931622687405       -4.70432135928682
C            2.62767561526978       -2.47360178530214       -5.59366799587288
H            2.46865972662594       -1.94281992335299       -6.52319092997149
C            3.84234772891325       -3.23030063143108       -5.41550610848953
O            4.76865656287277       -3.34921322308779       -6.22697725132934
N            3.91378052398408       -3.88297968525309       -4.17406739711478
H            4.74366606483990       -4.44285504561120       -3.99663140962884
C            2.98595868982694       -3.86725068642477       -3.15543706919537
O            3.13784837863444       -4.47442694337071       -2.09543964422336
C            0.33479987812015       -0.80333550392025       -1.75906466812587
H            0.85991464055659       -0.24399364362168       -2.53873211294988
C            1.14615712032791       -2.01394591788142       -1.28078270217086
H            2.22120754405428       -1.82309253161497       -1.21481340673921
O            0.62951785695524       -2.46152868608276       -0.02400839130239
H            0.28017218172804       -1.65128334362207        0.39964037852175
O            0.00208890174717        0.04812143528208       -0.66207744601379
P            0.69729035230862        1.55561482857588       -0.58719585171482
O            0.47076796823247        2.24071558001944       -1.90226695838068
O            2.06318575501860        1.45216883581898        0.01564620574407
O           -0.26924247919725        2.16813318502951        0.57334456598222
C           -1.66143848036563        2.41417576757219        0.26829608753363
H           -2.14064634609902        1.48454173377650       -0.05648548901534
H           -1.73768307481920        3.15860851455692       -0.53167275573123
C           -2.33907763204810        2.93109753061138        1.52138189883109
H           -3.35588766021339        3.24670350823408        1.26694231695963
O           -2.44543772485804        1.84525860809971        2.49482842953907
C           -1.79712847091995        2.19181588349936        3.70898824354960
H           -2.50230762076509        2.48085936280762        4.49222378795807
N           -1.10637391977451        0.98279366899254        4.19562440898056
C           -0.42900176762886        0.18517802598356        3.30520587209445
H           -0.48040436440437        0.52591850187095        2.27718694507125
C            0.23683818484188       -0.93286749472615        3.68252324507791
H            0.75678864813844       -1.54876475086096        2.96097049664783
C            0.27047348266197       -1.31261026784579        5.07275264645620
O            0.83614924227221       -2.30192769783872        5.55369921228862
N           -0.40419066966650       -0.41700553129174        5.91539078658343
H           -0.39155807032367       -0.62789341647671        6.91013331594205
C           -1.09343952061394        0.72728808714693        5.56593241142727
O           -1.63822088209656        1.45299463590698        6.39486535286852
C           -1.59965788450100        4.07103634975252        2.23392754788405
H           -0.93508213215369        4.61928501102776        1.56394409551774
C           -0.83201003908035        3.34760480102766        3.35052706858116
H            0.09053439542079        2.92447343104641        2.94523719772549
O           -0.49535506314950        4.18708644142602        4.43740119189495
H           -1.22255961152077        4.84103389545098        4.48921258812024
O           -2.51730391976884        4.97026598618532        2.88524620192827
H           -2.54817761741204        5.79713942760205        2.37912073774647
