5

C            0.00000000000000        0.00000000000000        0.00000000000000
Li           1.08251254444019       -1.08251254444019        1.08251254444019
Li          -1.08251254444019        1.08251254444019        1.08251254444019
Li          -1.08251254444019       -1.08251254444019       -1.08251254444019
Li           1.08251254444019        1.08251254444019       -1.08251254444019
