4

N            0.23063700100328       -1.33963600583046        0.00000000000000
F            0.23063700100328       -2.75246401202435        0.00000000000000
H            0.81002700352013       -1.11774100483701        0.80647700348965
H            0.81002700352013       -1.11774100483701       -0.80647700348965
