18

C            1.25758987078188        0.72606985042607        0.23496541726804
C           -1.25758987078188        0.72606985042607        0.23496541726804
C            0.00000000000000       -1.45213970085213        0.23496541726804
C            1.25758987078188       -0.72606985042607       -0.23496541726804
C           -1.25758987078188       -0.72606985042607       -0.23496541726804
C            0.00000000000000        1.45213970085213       -0.23496541726804
H            2.15014895804169        1.24138907972316       -0.12285626269678
H            1.29511057409397        0.74773243858348        1.32818128501438
H           -2.15014895804169        1.24138907972316       -0.12285626269678
H           -1.29511057409397        0.74773243858348        1.32818128501438
H            0.00000000000000       -1.49546487716696        1.32818128501438
H            0.00000000000000       -2.48277815944633       -0.12285626269678
H            1.29511057409397       -0.74773243858348       -1.32818128501438
H            2.15014895804169       -1.24138907972316        0.12285626269678
H           -1.29511057409397       -0.74773243858348       -1.32818128501438
H           -2.15014895804169       -1.24138907972316        0.12285626269678
H            0.00000000000000        2.48277815944633        0.12285626269678
H            0.00000000000000        1.49546487716696       -1.32818128501438
