52

C           -0.18487763002775       -0.33153432931133        0.05824529153342
C            0.51180178399009        0.86636775847532       -0.52595327072996
C            0.40330261865702       -1.67130737915863       -0.24154984151189
C           -0.01140454959928        2.23688402108651        0.02618730921384
C            0.47707644000234        0.81898415944604       -2.07693711205363
C           -0.44241350798234        2.08389518418310        1.49602855634515
H            0.85168214251884        2.91484263630272       -0.00123259254184
C           -1.12175125587383        2.90321768173180       -0.80180548739678
C           -1.61411429567683        1.10220274919411        1.61923231322128
H            0.39798677407359        1.71599779745142        2.10011151205471
H           -0.73165604832509        3.06062388181395        1.89998733200347
C           -1.26537453193048       -0.24107815654951        0.95404537848144
H           -1.86032088535398        0.90802898837517        2.66911592177099
H           -2.50799612897532        1.55544814934427        1.17297835101199
H           -1.30333659965654       -1.11486185570804        1.62210488204876
Si          -2.98329386504441       -0.96860400898684       -0.05041016118696
C            1.86898970347524       -1.72270290879486        0.28242647028891
C            2.70365290970819       -0.60494354820413       -0.35583493188373
C            2.02876407062217        0.74552670438851       -0.07225716327908
H           -0.18536492301091       -2.46892770311895        0.21796339483882
H            0.42722908790877       -1.83624655624030       -1.32681297457030
H            1.86102599051035       -1.61251454193245        1.37454923008602
H            2.28452798386208       -2.70970451567527        0.04979464142376
C            4.15007117202265       -0.60571635606463        0.12311145864639
H            2.71823181572231       -0.76917637947493       -1.44098839274853
H            2.08003013191487        0.95503060815992        1.00214744768706
H            2.55958922001363        1.55213497711812       -0.59105877831681
C           -4.20939977392964       -0.92798923011604        1.38492426561818
C           -3.47465999938656        0.17606466471520       -1.46384562891691
C           -2.65009197879921       -2.72434247094517       -0.65051637015802
H           -5.17830949246564       -1.30267166032973        1.02372973324653
H           -3.88709857007167       -1.57231567343378        2.21295547372661
H           -4.36326681555010        0.08681187624563        1.76911529677070
H           -4.33206951969956       -0.29078221057344       -1.97202754011581
H           -3.80014675026167        1.16289082517865       -1.11645612898772
H           -2.68082947047870        0.30533185074213       -2.20822601054493
H           -3.59999471248270       -3.12412884523181       -1.03598986338257
H           -1.91979527848658       -2.76770797480642       -1.46652561010634
H           -2.31812900032849       -3.39057281007168        0.15546889378860
H            1.01657861250158        1.69325366651736       -2.45759258254480
H            0.96258466890080       -0.07932006662062       -2.46547172669635
H           -0.54843343232473        0.85873738865943       -2.45613108149504
H           -1.42561398043014        3.83702618567028       -0.31362566335977
H           -0.78151391496221        3.14929663104071       -1.81239115162339
H           -2.00553168648200        2.26623675973359       -0.89114492049210
C            5.15036196681024       -0.67301357360502       -0.76283309650282
C            4.39863031970665       -0.52441719307012        1.61032476025665
H            6.19078208469330       -0.66611728793338       -0.44252501665029
H            4.95845295152701       -0.73906561932944       -1.83332345671802
H            3.99265126438886       -1.40354567506862        2.13154847037232
H            5.47138977391676       -0.47247954765593        1.82271668561327
H            3.92139511014906        0.36095293243716        2.05465348446553
