12

C            1.88539110835384        0.16653081786999        0.07741216351093
H            1.89724966590249        1.12275614409971       -0.44078255012604
H            2.57099542800636       -0.52003635823898       -0.41028604417782
H            2.22542190045026        0.31287852794123        1.10128124580381
C            0.51750414244802       -0.46934287956400        0.12186247401128
O            0.35492905127617       -1.64609759604263        0.41914019784697
N           -0.51782579478982        0.36603042582282       -0.17062381212238
H           -0.31333493234931        1.33007498035631       -0.35851403778739
C           -1.89433558322409       -0.07051303317481       -0.09764643608717
H           -1.88906105752953       -1.15588906215465       -0.09178761461259
H           -2.38486658923756        0.27933864130145        0.81090463892369
H           -2.45206733930684        0.28426939178355       -0.96096022518329
