5

I            0.00000000000000        0.00000000000000        0.32526197685046
C            0.00000000000000        0.00000000000000       -1.80324487215545
H            0.00000000000000        1.03019592661398       -2.13979684797562
H           -0.89217593652024       -0.51509796330699       -2.13979684797562
H            0.89217593652024       -0.51509796330699       -2.13979684797562
