5

C           -0.34912738154024        0.20745892515690        0.00000000000000
S           -1.16442798508702       -1.18417424233056        0.00000000000000
O            0.97848932429568        0.34242447570518        0.00000000000000
H           -0.81865998358094        1.18537234712909        0.00000000000000
H            1.35372602591252       -0.55108150566062        0.00000000000000
