6

C            0.00000000000000        0.41657500182200        0.00000000000000
H           -0.26341600115212        1.47333600644401        0.00000000000000
O           -1.11047100485693       -0.34327300150139        0.00000000000000
H            1.87650100820736        0.63087000275927        0.00000000000000
H           -0.82534800360987       -1.26996900555454        0.00000000000000
N            1.15657600505858       -0.08392900036709        0.00000000000000
