9

C            1.13271291967238        2.26609983912887        0.00000000000000
I            0.00000000000000        0.46181596720810        0.00000000000000
H            1.74918387587192        2.28346083793847        0.89154193671233
H            0.43925596899219        3.09939477985277        0.00000000000000
H            1.74918387587192        2.28346083793847       -0.89154193671233
O           -1.21978591340212       -2.47112882452104        0.00000000000000
C           -0.23985298297712       -3.16307377514854        0.00000000000000
H            0.77492594504621       -2.72737780615442        0.00000000000000
H           -0.31141797762795       -4.26429769743410        0.00000000000000
