33

N           -0.86217042365427        2.61959587466534        0.66060913477727
C           -1.87602935169593        2.18099690563935       -0.16208380667331
C           -1.43858938289303        1.12870398070590       -0.93235175187217
C           -0.07205447957804        0.89915699696659       -0.55701377841718
C            0.90247045131367       -0.01899993826046       -0.97784674867615
C            2.15635236209899        0.00271306049921       -0.37994979139778
C            2.46002534069807        0.93842799398205        0.63499013667525
C            1.51245940790469        1.86758392780959        1.05321410717719
C            0.25272549726822        1.84115693008258        0.45363814945602
H           -0.95403041687676        3.33512082369550        1.35780308570740
H           -2.85061428228735        2.63958387319480       -0.11981180971076
H            0.71153946438430       -0.74278288658305       -1.75978769331795
H            3.43456427150208        0.94947099313844        1.09787810366872
H            1.75765539051993        2.58284187730292        1.82778405195900
O            3.04883529866142       -0.93543887321345       -0.83891475870182
C            4.34663620644778       -0.91914787389937       -0.26998179905617
H            4.31678620846919       -1.11954385989234        0.80338612477851
H            4.84883817086769        0.03465905797126       -0.44583678654371
H            4.89888116745217       -1.71172081792893       -0.76620776364580
C           -2.26519632378703        0.27142404109275       -1.83951168773024
C           -2.96947427425847       -0.85607087853638       -1.06005274296075
N           -2.05395333899728       -1.61569182481944       -0.22678680220636
C           -1.86726835253087       -1.30090884687893        1.09551910415978
C           -0.64745643906484       -1.93399380210772        1.73193005881150
H           -1.62999836924688       -0.16315192803872       -2.61600163242777
H           -3.02622627001211        0.86418199919369       -2.35247365103839
H           -3.47720323799532       -1.53196883081586       -1.75065769359195
H           -3.71001422169719       -0.43173790850822       -0.38579079071308
H           -1.29770239269307       -2.09788779021788       -0.68191376996881
O           -2.62061429904253       -0.56753889927430        1.71873005978783
H            0.16775850342288       -1.20961185322878        1.69947606127135
H           -0.32635346171045       -2.83846773763279        1.21713509549618
H           -0.87057842298973       -2.16095378610336        2.77088198492426
