6

C           -0.00000000000000        0.00000000000000       -0.48547758627160
C           -0.00000000000000        0.00000000000000        0.93244221991304
O           -0.00000000000000        0.00000000000000        2.04324732476519
H            0.52121360832685       -0.90276845121841       -0.83007065280221
H            0.52121360832685        0.90276845121841       -0.83007065280221
H           -1.04242721665370        0.00000000000000       -0.83007065280221
