16

C           -2.15280889501494        2.06991999436461       -0.00226980101130
H           -1.80636724827553        2.61006611220749        0.88910415638600
H           -1.80591057273469        2.60801294595792       -0.89470547807998
H           -3.25161873229603        2.07224930920164       -0.00254350861012
C           -1.65175962334327        0.63365417650958       -0.00049897620426
H           -1.99774160807734        0.08774559300666       -0.89623401005208
H           -1.99836767779432        0.08974001111355        0.89620987092583
O           -0.22987985045307        0.70814944906039       -0.00010070626969
O            0.22989292655424       -0.70801370618916        0.00123359374720
C            1.65183758657195       -0.63364319113464        0.00063000734114
H            1.99843469816745       -0.08772622615264        0.89611619364757
H            1.99776759308615       -0.08976759619549       -0.89635277509272
C            2.15278113948502       -2.06994254527791        0.00208348970782
H            1.80578737279213       -2.61004917665816       -0.88911918964248
H            3.25159194193242       -2.07234389753784        0.00173133841387
H            1.80636094939981       -2.60805125227599        0.89471579479320
