6

O           -1.33050646560631        0.99907413175161        0.00000000000000
H           -1.06354547980579        1.92108714020646        0.00000000000000
H           -0.50513258466339        0.49194212890334        0.00000000000000
O            1.00521436575673       -0.75126820387863        0.00000000000000
H            0.94698508215939       -1.33041759849139       -0.76557518622043
H            0.94698508215939       -1.33041759849139        0.76557518622043
