18

C           -2.04470536479252        0.05805154459138       -0.07964222306859
O           -1.46025609957329        1.03302297140068        0.39824143014142
N           -1.40057682143311       -1.02706985489812       -0.54646633980518
H           -0.38037307609555       -1.07067638228132       -0.51378106801088
H           -1.91858266590256       -1.79572418849461       -0.92522791783214
C           -3.55167485306797        0.03387402256597       -0.16507785096013
H           -3.95558443290367        0.14041682121645        0.83861043872839
H           -3.94438302296166       -0.87349054611956       -0.61637193367875
H           -3.87811362160851        0.89447094548073       -0.74336494968958
C            2.04464591755383       -0.05823893588454        0.07988534660003
O            1.46022419653760       -1.03225930265578       -0.39984558487666
N            1.40055839971604        1.02650420985131        0.54773186757543
H            0.38045310409433        1.07094199102284        0.51343055313866
H            1.91858242883117        1.79446535569804        0.92785249068651
C            3.55164499265631       -0.03395455763411        0.16511042599208
H            3.94351602907368        0.86569489465965        0.63229440281164
H            3.95520115831665       -0.12149958854870       -0.84066981180918
H            3.87942373155923       -0.90452939997029        0.72729072405690
