14

C            0.62527801104147        2.89809629224932       -0.03936045494634
C           -0.34255388426095        1.73745370763230       -0.03150100190211
N            0.36138843469222        0.47998433942076        0.01403975051597
C           -0.22542645446478       -0.72812871139124        0.09515084594372
N           -1.56562722924419       -0.73828988992176       -0.07257090170753
S            0.64293020550854       -2.11955821358476        0.35396039321930
H           -2.11587317414544        0.09765190142953       -0.03875317842190
H           -2.02216030431978       -1.61654192819713        0.07076902610641
H            1.34388429136981        0.47744786628838        0.21511755156891
H           -0.96428971543752        1.77250469916427       -0.92748736798137
H           -1.00987152718978        1.82684419727167        0.83109160657859
H            1.29351691301066        2.84225751941645       -0.89453694930970
H            0.07941403862353        3.83516194291994       -0.09217618458868
H            1.22905938313681        2.90822933710514        0.86522986645105
