10

C            0.00000000000000       -0.66757818481186       -1.76775602445275
C            0.00000000000000        0.66757818481186       -1.76775602445275
C            0.00000000000000        0.00000000000000        3.25740731429231
C            0.00000000000000        0.00000000000000        2.05014395769267
H           -0.92362127343043        1.23225337108011       -1.76928212450251
H            0.92362127343043        1.23225337108011       -1.76928212450251
H            0.92362127343043       -1.23225337108011       -1.76928212450251
H           -0.92362127343043       -1.23225337108011       -1.76928212450251
H            0.00000000000000        0.00000000000000        0.98425567854480
H            0.00000000000000        0.00000000000000        4.32083359638572
