4

C            0.74442073307451       -0.08386227397466        0.00000000000000
H            1.09086957000928        0.98079531623783        0.00000000000000
O           -0.56817207055105       -0.05185844325441        0.00000000000000
H           -0.94286401547096        0.84178008457152        0.00000000000000
