9

C           -1.10525857542342        0.09867982667244        0.00000000000000
C            0.35986021103128        0.49805232401675        0.00000000000000
N            1.25551032331638       -0.53305243492399        0.00000000000000
O            0.71325151075832        1.66281045582327        0.00000000000000
H            0.97276176798927       -1.49689126739522        0.00000000000000
H            2.23885544142643       -0.31379594154386        0.00000000000000
H           -1.58323755204641        0.53201106869319        0.87971475193174
H           -1.26850557500545       -0.97982510003576        0.00000000000000
H           -1.58323755204641        0.53201106869319       -0.87971475193174
