7

C            0.86548822762040        0.00013162726729       -0.03872054861940
C           -0.62448958626284        0.00029562754011       -0.01678555737387
H           -1.03251696650285        0.88972014472383       -0.49738150943672
H            1.41935684718569       -0.92392361843702        0.03215945788255
H           -1.01515995398519       -0.01320138330590        1.00832027609133
H           -1.03294560004369       -0.87659400869373       -0.51989958729233
H            1.42026703198845        0.92357161090540        0.03230746874844
