4

N            0.00000071339323        0.00000027996980        0.00000000000000
H            0.48043715829627       -0.90448092769888        0.00000000000000
H            0.54308393268366        0.86831158538707        0.00000000000000
H           -1.02352180437315        0.03616906234201        0.00000000000000
