6

N            0.05075500022199        0.70669170309090       -0.22188090097046
N           -0.05075500022199       -0.70669170309090       -0.22188090097046
H            0.85238300372811       -1.08387660474061       -0.45777580200220
H           -0.32358930141530       -1.07405370469765        0.67965270297264
H           -0.85238300372811        1.08387660474061       -0.45777580200220
H            0.32358930141530        1.07405370469765        0.67965270297264
