11

C            0.00000000000000        0.00000000000000       -1.12416991122942
C            0.00000000000000        1.17942674872241       -0.18959510114876
C            0.00000000000000       -1.17942674872241       -0.18959510114876
C            0.00000000000000        0.73434646777593        1.08066229932291
C            0.00000000000000       -0.73434646777593        1.08066229932291
H            0.87715873186641        0.00000000000000       -1.78568414860628
H           -0.87715873186641        0.00000000000000       -1.78568414860628
H            0.00000000000000        2.21027959678961       -0.51635496958045
H            0.00000000000000       -2.21027959678961       -0.51635496958045
H            0.00000000000000        1.34728612930243        1.97305687562727
H            0.00000000000000       -1.34728612930243        1.97305687562727
