33

N           -1.03543432061776        2.65935020495500       -0.07673902492667
C            0.24243658910733        2.18062123930570       -0.28206101044874
C            0.23724058907745        0.80303933678378       -0.25375501239797
C           -1.12485331408907        0.41382936481087       -0.01594502917076
C           -1.75860126909527       -0.83565054671560        0.11738496120052
C           -3.12140217206594       -0.86095354505860        0.35776694411418
C           -3.87426611910258        0.32936137078763        0.46786293648545
C           -3.27245116180107        1.57086728237639        0.33548094592041
C           -1.89409525928998        1.59816928044257        0.09079596327888
H           -1.29099030235929        3.62901713611839       -0.04528302703071
H            1.05708653120368        2.86888919044134       -0.43504599924338
H           -1.21086330775027       -1.76664548036153        0.05096196616191
H           -4.93251704390348        0.25361937614872        0.67871392161433
H           -3.85100012069827        2.48081621761979        0.42936093926370
O           -3.75519912729434       -2.07792445848232        0.53696593151666
C           -4.47167407642061       -2.49383442911781       -0.62270898615966
H           -3.79472612436912       -2.62246041985433       -1.47073492606769
H           -5.24447802138026       -1.77017648039009       -0.89157896704224
H           -4.93624904342877       -3.44563536130911       -0.37887400340916
C            1.39648150682684       -0.13067859673656       -0.42934499958018
C            2.72425341266530        0.59095135176928       -0.66521998283445
N            3.84713933266929       -0.31210258380710       -0.83456297112820
C            4.62294027805467       -0.85271354572900        0.15739795833003
C            4.47000428842388       -0.25175958832520        1.54094686043622
H            1.20807352042007       -0.80200554907724       -1.27281693989648
H            1.49379549989922       -0.77173755137387        0.45162493744410
H            2.93599339751647        1.26270430446499        0.16505995803007
H            2.65056541778299        1.21003930782693       -1.56092891967310
H            3.93948132642515       -0.79012755008704       -1.71739390851342
O            5.41998022123825       -1.74871648178413       -0.07764402485111
H            5.12030424246977       -0.80097054936246        2.21358781270930
H            3.44241536180625       -0.31615458367112        1.89759583523693
H            4.76060926807949        0.79897233739171        1.53912986063119
