17

C           -0.31760410562132        0.20240812676952       -1.11990484235778
C            0.51587607528128        1.37783017935902       -0.66638590181512
C            0.51587607528128        1.37783017935902        0.66638590181512
C           -0.31760410562132        0.20240812676952        1.11990484235778
C           -1.36504723098100        0.15994675829313        0.00000000000000
C            0.51355173614121       -1.06493689597330       -0.77372904756673
C            0.51355173614121       -1.06493689597330        0.77372904756673
H           -0.68317582793106        0.23562336281809       -2.14567858677275
H            1.10240849137815        2.01128176890791       -1.32031782310561
H            1.10240849137815        2.01128176890791        1.32031782310561
H           -0.68317582793106        0.23562336281809        2.14567858677275
H           -2.02062854388735        1.03245883702925        0.00000000000000
H           -1.96079662748276       -0.75757617756882        0.00000000000000
H            0.02523984979055       -1.95915202245304       -1.16904922332545
H            1.51693998213675       -1.02046922830496       -1.19942954028274
H            0.02523984979055       -1.95915202245304        1.16904922332545
H            1.51693998213675       -1.02046922830496        1.19942954028274
