18

C            1.05281624812146        1.24711341560496       -1.13439414968576
H            1.72808328146276        2.09150256660985       -1.13346192729806
C            1.55968482316028       -0.05152389115974       -1.08689347070879
H            2.62798292715431       -0.21334172868444       -1.04873421151218
C            0.68838764228932       -1.14015263645647       -1.08326143805042
H            1.08172900393732       -2.14665398721810       -1.04513105975844
C           -0.68913844103286       -0.93081589562084       -1.12689630816503
H           -1.36458907240749       -1.77530161935000       -1.12304554116488
C           -1.19627888298049        0.36698821157094       -1.17059420381463
H           -2.26487973137359        0.52958889798613       -1.20044753772636
C           -0.32570798513125        1.45616955017015       -1.17428281186698
H           -0.71869441704035        2.46294516871759       -1.20379732366493
O            0.34008607497506        0.52202378428328        2.17694649829139
H            0.42618628382553        0.57189687159053        1.21975302118723
C           -0.55606446077527       -0.53559021383057        2.46000151723358
H           -0.65178514783320       -0.59232479383302        3.54093757637299
H           -1.54821397787875       -0.36389248590443        2.03621134332102
H           -0.18960416847281       -1.49863121447585        2.09709002701023
