59

H            3.02875928325082       -1.81043546460678       -4.52809698014051
O            2.62628221205472       -1.77791636715696       -3.64571294296426
C            1.98588665725279       -0.49848435767166       -3.49343765383590
H            1.30004880587615       -0.30645907142925       -4.32748409446315
H            2.73360690443083        0.30571138487555       -3.45374675629112
C            1.20441101284077       -0.49685415795126       -2.19401164600992
H            0.82394523971483        0.51373717013528       -2.01566185838252
O            0.04640149522374       -1.38881559460576       -2.29035203927012
C            0.16641518664982       -2.44790261939989       -1.33919390657455
H           -0.51809766478774       -2.28981953047609       -0.50244426576743
N           -0.26487868307095       -3.69825823083781       -1.96736196200556
C            0.46160336536648       -4.22410289322220       -3.01192098793133
H            1.32777910410152       -3.63561273503943       -3.30033116753313
C            0.11030979041348       -5.36520481212228       -3.65034104271166
H            0.70608324791708       -5.75603938459153       -4.46426518492509
C           -1.09032142404661       -6.06162716288188       -3.26195497002220
O           -1.53132109280411       -7.10645348838795       -3.75564603501046
N           -1.81105917289557       -5.41576970867267       -2.24620694230970
H           -2.68742381083094       -5.84658957796115       -1.96215716228784
C           -1.48192659654145       -4.25714179086275       -1.57293668985153
O           -2.20960784467798       -3.76182142628452       -0.71529975088741
C            1.99572515647116       -0.97448342403408       -0.97627183227781
H            3.07009988016705       -0.80203263619018       -1.06830292595543
C            1.62777358246217       -2.45723521885450       -0.85284064086807
H            2.24990183834164       -3.04855627667416       -1.52754179326712
O            1.78692837165703       -2.98725548102407        0.45189676624970
H            1.63441428231624       -2.25331123326775        1.08770832134546
O            1.49591489206593       -0.31780597070774        0.19753028438898
P            2.49847502092087        0.24632818932252        1.37809550065707
O            3.86096952393629        0.49156847200797        0.80047024121942
O            2.29116323542143       -0.63296884814302        2.57732951529778
O            1.73436037531844        1.64683258967925        1.70252767736900
C            1.87363166525356        2.73653551232557        0.76599324418204
H            1.89985456356374        2.35548993930920       -0.26040658314192
H            2.80580489927382        3.27395607436812        0.96825482961510
C            0.70782564802316        3.68471154516731        0.92885303216418
H            0.91679583309658        4.58533078137639        0.33649337463717
O           -0.50967246560540        3.07336368848673        0.41930286854277
C           -1.62318368640341        3.45634036144000        1.20122701286648
H           -2.40666293067611        3.88130033131992        0.57068705764449
N           -2.20180744555773        2.23460034794269        1.84577796717191
C           -1.54458909215773        1.03186063376505        1.85939756615224
H           -0.57811686043853        1.03834733299638        1.37187780072325
C           -2.06926025486346       -0.07701388762671        2.44047112527476
H           -1.52710729330361       -1.01319502146976        2.43568582549921
C           -3.36034086290133       -0.01873259195900        3.07545898005769
O           -3.95184692107392       -0.94688332615721        3.64144543971720
N           -3.96042632037881        1.24927211823745        3.00988078468566
H           -4.87462015539656        1.34773511114197        3.44430415392647
C           -3.45551835643158        2.39117503680636        2.42715962596686
O           -4.05767331379534        3.46514446103054        2.41496502660150
C            0.36600057211183        4.09456581606361        2.36096173074269
H            0.50015856288995        3.25116767585950        3.04416308208101
C           -1.12385332169804        4.46388378966160        2.24546363863486
H           -1.66591388362510        4.37988099585364        3.19245017159578
O           -1.25410701285100        5.77480879658427        1.69546017810231
H           -0.47865116773782        6.27162826146232        2.02772695412845
O            1.18376331448297        5.20008773735240        2.74699550330671
H            1.21689411168385        5.22941813569842        3.71791253413757
