12

C           -0.66717143148209       -1.03567927713622        0.00000000000000
C           -1.41289766185988        0.12847696105144        0.00000000000000
C           -0.75619568293439        1.35929310333876        0.00000000000000
C            0.62778453151936        1.36351011899682        0.00000000000000
N            1.36752680322286        0.24350376677928        0.00000000000000
C            0.72350956773965       -0.91250165426693        0.00000000000000
O            1.46706778426916       -2.04289498012485        0.00000000000000
H           -2.49245033665848        0.07984555368321        0.00000000000000
H           -1.30381572208751        2.28913396756435        0.00000000000000
H            1.18132084272338        2.29270814616907        0.00000000000000
H           -1.12163506057684       -2.01420400643283        0.00000000000000
H            2.38695636612480       -1.75119169962210        0.00000000000000
