19

C            1.46533756184699       -3.06533377605309        1.11310467611778
H            2.46618894605515       -2.67693287506262        1.29681434291907
H            1.24966628794573       -3.86843325062420        1.81032985258037
N            1.43670902212491       -3.59412237588465       -0.23914309343862
H            0.85257755843915       -4.38641947112677       -0.43823153758652
C            0.42323363656387       -1.97155434862105        1.33467007911252
O           -0.56903650704332       -2.15828414746796        2.03057273204091
C            2.07337078703938       -2.97223479604072       -1.26062975849678
O            2.70522111483391       -1.92821761523545       -1.09943429076293
N            0.71137141301749       -0.81649899068400        0.69224716419323
H            1.51815783216211       -0.82309967480183        0.08100669607108
C           -0.19864377394701        0.30711764968751        0.70401206013572
H            0.35178438858491        1.23356594322221        0.84785130555414
H           -0.76913217305171        0.37448063615240       -0.22227786696548
H           -0.89010883907782        0.16577584799632        1.52877641307604
C            1.97621949045673       -3.64376932852974       -2.60597809664790
H            1.38001570857882       -4.55251579404665       -2.59241519794275
H            2.98223578117799       -3.87993305323924       -2.94434428874026
H            1.54673385488155       -2.93989875982309       -3.31453420555508
