16

C            1.59360195794431       -0.25582600143676        0.00000000000000
C            0.11784469857812        0.00167255618976        0.00000000000000
C           -0.27847325097529        0.79453113511057       -1.26018457628292
C           -0.63709701670470       -1.35384669166101        0.00000000000000
C           -0.27847325097529        0.79453113511057        1.26018457628292
H            2.12366344615403       -0.43641205766845        0.92775807646218
H            2.12366344615403       -0.43641205766845       -0.92775807646218
H           -0.00550550798164        0.24940354378832       -2.16765096394237
H           -1.35736777652021        0.97004920691037       -1.28639650530767
H            0.22365311681525        1.76449541695854       -1.28642683869952
H           -1.71922840914038       -1.18872304940506        0.00000000000000
H           -0.38353064283083       -1.94370565194281       -0.88378450227504
H           -0.38353064283083       -1.94370565194281        0.88378450227504
H           -1.35736777652021        0.97004920691037        1.28639650530767
H           -0.00550550798164        0.24940354378832        2.16765096394237
H            0.22365311681525        1.76449541695854        1.28642683869952
