31

N            1.36250508404812       -0.80625054583207       -0.91977723184717
C           -0.00095724062317       -0.28036112025398       -0.82503937571026
C           -0.06322366266707        1.22953566075493       -0.57484650530705
O           -0.65458475214270        1.97147594139006       -1.35734419930721
C           -0.84801586591684       -1.06272226756899        0.17987023670754
C           -2.27659634045845       -0.53841978224267        0.31761894119664
C           -3.02247012269284       -0.54316930830068       -1.01271610398376
C           -3.01985332546044       -1.37571679396639        1.35235157710381
H            1.67323250871023       -1.08862071101408       -1.83257401522604
H           -0.42438934807525       -0.40081946620246       -1.81938849387407
H           -0.35531765346293       -1.04321876611236        1.15121219247081
H           -0.87891273775224       -2.10648025050846       -0.14863241285364
H           -2.22681377954238        0.49197815823581        0.68069394213416
H           -3.00731812615074       -1.54336466421048       -1.45217746053419
H           -4.06529713000313       -0.26279698022127       -0.86561452654304
H           -2.58896058290178        0.16012600539659       -1.72136053855120
H           -3.10569452842898       -2.40949488922038        1.01244129876923
H           -4.02715845561645       -0.99333963899817        1.51470473560920
H           -2.49820034864501       -1.37916349498824        2.30930594824063
N            0.51379052262784        1.65651152874129        0.56454863629062
H            1.04632817939154        0.98424478193338        1.10662346546158
C            0.51094262307937        3.06502195746807        0.89538521758971
H            0.92628051284934        3.19049903181196        1.89060427651043
H            1.10032580437502        3.64266975680191        0.18398111114363
H           -0.50541459453260        3.45198824008311        0.87633347580989
C            2.24417716206603       -0.95956920769039        0.09679165185657
O            2.02449066754593       -0.59493402332506        1.25318147623334
C            3.54637794748434       -1.62747406365796       -0.27187789797858
H            4.36463513313383       -0.99073874779861        0.05416274785768
H            3.64653383965862       -1.83096363856461       -1.33489993491296
H            3.61687857951853       -2.56304772186932        0.27864777256392
