5

C            0.00000000000000        0.79170400346272        0.00000000000000
H           -0.55324500241976        1.72957300756473        0.00000000000000
H            0.99563600435467       -0.56166400245658        0.00000000000000
O            1.26196900551954        0.77642700339590        0.00000000000000
S           -0.65863400288070       -0.75809700331573        0.00000000000000
