17

N           -2.14952901962839       -0.39731758977403        0.00000000000000
C           -2.60093929624193        0.85642102650903        0.00000000000000
N           -1.58000153312544        1.68086179344824        0.00000000000000
C           -0.41985915182014        0.94398534254232        0.00000000000000
C            0.95486166741998        1.31587439544365        0.00000000000000
O            1.42843120512490        2.43258860969370        0.00000000000000
N            1.75021720680993        0.17312473870303        0.00000000000000
C            1.30395830539959       -1.12076017099059        0.00000000000000
N            2.21947079459384       -2.08029453770474        0.00000000000000
N            0.02489261449463       -1.43869436425294        0.00000000000000
C           -0.77989515689037       -0.38160162481910        0.00000000000000
H           -2.73849886231742       -1.22114415139049        0.00000000000000
H            3.20857645658886       -1.89461051572323        0.00000000000000
H            1.92302591307417       -3.04237654582140        0.00000000000000
H           -3.63960243401313        1.14353839670228        0.00000000000000
H            2.75056534371686        0.33950486365588        0.00000000000000
H           -1.65567405318596        2.69090033377839        0.00000000000000
