26

C            2.85829660465517        0.21547310000414       -0.49550746478775
C            1.48253570251799        0.74726106224223       -0.05606049616059
C            0.33109478436006       -0.13541387475956       -0.55853146040718
C           -1.05441411763805        0.10782610748512        0.06201149537989
C           -1.74129006864958       -1.23852079689025       -0.17804548752874
O           -2.81719899244052       -1.52368277670266        0.70110345016914
C           -0.60671314923982       -2.23640472590602        0.04807049638709
O            3.25048857699659       -0.90249482057183        0.29749047892274
O           -1.81266706357105        1.14517303382543       -0.53852446176996
O            1.45898370393992        0.91656405003062        1.35579640375706
O            0.61167376408205       -1.52450177633432       -0.25791648154927
C           -1.70909907112489        2.41701694373737        0.09679449337289
H            3.61745955070807        0.98420604552119       -0.32732047681147
H            2.84708260558731       -0.03394688200234       -1.56610438867076
H            1.33860071243861        1.74069899197243       -0.50109346418865
H            0.25794178922550       -0.01255388358141       -1.65135338263932
H           -0.95078112476754        0.27622409587824        1.14184841905572
H           -2.08544404394091       -1.26391879471368       -1.22244841305660
H           -3.53768594092543       -0.91015081993148        0.50291746431618
H           -0.67154114436774       -3.11932066290992       -0.59463945781008
H           -0.59236315023907       -2.55407870319762        1.09721342200453
H            2.57760362481580       -1.59092877142347        0.15920548852368
H            2.03708166309230        0.22873309925669        1.72505737756095
H           -2.00405505005647        2.35681394790757        1.15302441790807
H           -0.69266214305638        2.82598091472297        0.03962249707544
H           -2.39292802240192        3.08394589634057       -0.43261046905305
