6

Cl           0.00000000000000        0.00000000000000       -2.21807229738572
C            0.00000000000000        0.00000000000000       -0.39966593932672
H           -0.51253194173549        0.88773136358780       -0.05771427152628
H           -0.51253194173549       -0.88773136358780       -0.05771427152628
H            1.02506388347098        0.00000000000000       -0.05771427152628
Cl           0.00000000000000        0.00000000000000        2.79088105129130
