9

C           -1.31197436872888       -0.10703497313083       -0.10141765940169
S            0.07115913785601        0.94415905121068        0.41230047962837
C            1.44036499396412       -0.16593752145615       -0.00680782687642
H           -2.22758526960521        0.44872605649747        0.09161711595988
H           -1.25610783547714       -0.34082022227994       -1.16559782854787
H           -1.33218185418914       -1.03284625508698        0.47293865131109
H            2.36378713843816        0.36063126754414        0.22801914970508
H            1.43599451832174       -0.41511849380983       -1.06891044688525
H            1.39554354195273       -1.08175891556812        0.58185836267501
