7

C           -1.12666542094313        0.78080733855678        0.00000000000000
S           -0.70989340264323       -0.88709213118176        0.00000000000000
C            1.09172059125410       -0.81310153043045        0.00000000000000
O            1.74579726695358        0.19246799001809        0.00000000000000
H           -0.34191597637090        1.52254135221219        0.00000000000000
H           -2.17455289009651        1.03392454279676        0.00000000000000
H            1.51550983184610       -1.82954756197163        0.00000000000000
