6

C            0.00000000000000        0.79594100348125        0.00000000000000
H           -0.54081600236540        1.73734700759873        0.00000000000000
H            1.89524300828933        1.49401900653448        0.00000000000000
H            0.96488700422018       -0.68563400299880        0.00000000000000
N            1.28962100564049        0.67635900295823        0.00000000000000
S           -0.70916600310172       -0.75349300329559        0.00000000000000
