18

C            0.67067413973970        0.52680484235650       -1.06194697285581
C           -0.46887969057766       -0.50169401321366       -0.76363841283720
C           -0.46887969057766       -0.50169401321366        0.76363841283720
C            0.67067413973970        0.52680484235650        1.06194697285581
C            1.95962449771837       -0.15770731382229       -0.66412669228949
C            1.95962449771837       -0.15770731382229        0.66412669228949
O            0.47344025445333        1.44895765771881        0.00000000000000
C           -1.81983141762652        0.05669757970959       -1.13653207962951
C           -1.81983141762652        0.05669757970959        1.13653207962951
O           -2.53097652593384        0.36280372209847        0.00000000000000
O           -2.26808607152296        0.23848324116342        2.21959638060226
O           -2.26808607152296        0.23848324116342       -2.21959638060226
H            0.61160963602530        1.01378412288898       -2.03176276504067
H           -0.31659378056032       -1.45989803960943       -1.25737811725707
H           -0.31659378056032       -1.45989803960943        1.25737811725707
H            0.61160963602530        1.01378412288898        2.03176276504067
H            2.66025082254436       -0.62235110938175       -1.34323902230852
H            2.66025082254436       -0.62235110938175        1.34323902230852
