21

H            2.52225586212421       -0.99552142674816        1.18167333697561
C            1.83315566561477       -0.32407923527422        0.66929919086282
C           -1.80619437221199        0.47479399253899        0.00000000000000
C            0.90309740039177        0.47479399253899        1.56421044606302
H           -0.23776892494699       -0.99552142674816        2.77517479139150
H            0.62178732017109        1.41365926027347        1.07696630711650
H            1.43414455182951        0.75074807123231        2.48401170836105
C           -0.33694795322969       -0.32407923527422        1.92220854815268
C           -1.49620828381383       -0.32407923527422        1.25290935728986
H           -0.23776892494699       -0.99552142674816       -2.77517479139150
C           -0.33694795322969       -0.32407923527422       -1.92220854815268
H           -2.86828967508775        0.75074807123231        0.00000000000000
C            0.90309740039177        0.47479399253899       -1.56421044606302
H            2.52225586212421       -0.99552142674816       -1.18167333697561
H            0.62178732017109        1.41365926027347       -1.07696630711650
H            1.43414455182951        0.75074807123231       -2.48401170836105
C            1.83315566561477       -0.32407923527422       -0.66929919086282
H           -2.28448650860567       -0.99552142674816        1.59350145441588
H           -1.24357421177063        1.41365926027347        0.00000000000000
C           -1.49620828381383       -0.32407923527422       -1.25290935728986
H           -2.28448650860567       -0.99552142674816       -1.59350145441588
