16

N           -2.00461630011270        0.68610408056531        0.00000000000000
N           -0.09681297067489        2.10387897461311        0.00000000000000
N            1.20347071721343       -1.14111470635788        0.00000000000000
N            1.97509717149284        0.87404923750130        0.00000000000000
N           -1.96415097743605       -1.59788420440933        0.00000000000000
C            2.30253145221063       -0.40905690268275        0.00000000000000
C            0.59856008242451        0.99247578382215        0.00000000000000
C           -1.30355695819695       -0.44120957693923        0.00000000000000
C           -1.40164615617775        1.86560119372470        0.00000000000000
C            0.10247938499257       -0.29951196789364        0.00000000000000
H            2.62390075082002        1.65233048993020        0.00000000000000
H           -2.97204491184030       -1.56603293987604        0.00000000000000
H           -1.52715690568280       -2.50119818905598        0.00000000000000
H           -2.05235896833597        2.73207666530171        0.00000000000000
H            3.30871910060798       -0.79877851823923        0.00000000000000
H            1.20758548869543       -2.15172942000441        0.00000000000000
