28

N           -0.80648303387186       -0.96621871441688       -0.23513099799313
C            0.35368163643308       -0.38897905481253        0.42946465777872
C            0.64160228254389        0.99838957167541       -0.16370371235488
O            1.54680971038656        1.22960474658966       -0.96082500625461
C            1.53557210036760       -1.35829459319295        0.40252625917855
C            1.95866402861849       -1.79447372042323       -0.99867061833107
C            2.71713037290863       -0.76343688129227        1.16266066835770
H           -0.65926139769199       -1.52126418740868       -1.06012633704197
H            0.05191089846306       -0.24356690464857        1.46835781029991
H            1.19112579742769       -2.24381016526574        0.94482924665665
H            1.16109245633438       -2.31006144762190       -1.53646698896966
H            2.78614687883329       -2.49963510883368       -0.92436485553374
H            2.27772867246080       -0.93722964035916       -1.58466711158949
H            2.42018123573145       -0.43319009886215        2.15863917247436
H            3.50438053966918       -1.50741936885665        1.27726614154379
H            3.12494693109025        0.08805697000092        0.62201760365144
N           -0.22444912071410        1.93866224663991        0.27922886370740
H           -1.02744761326270        1.61072494076519        0.80265624966368
C           -0.20757659233291        3.27712919377987       -0.27036203326901
H           -0.65615774177504        3.96312022575261        0.44223180105343
H            0.82334009419833        3.56502983221435       -0.45262635908336
H           -0.74953396258881        3.33843376007949       -1.21478760425013
C           -2.07495069711752       -0.67717708404621        0.14562567983619
O           -2.32844581698315        0.09897401361841        1.06752610071150
C           -3.16581137034908       -1.38203719236825       -0.61970542874793
H           -3.72837429184495       -2.00061433861791        0.07579311122508
H           -2.79087840324316       -2.00406740364601       -1.42855441033817
H           -3.84563557694296       -0.63507661200678       -1.02177090759889
