39

H            1.98627136551542       -3.30615762496001       -1.71802248839212
C            2.69386274268843       -3.01376641292076       -0.93795376478484
H            3.68671888335106       -2.88854801491215       -1.37723845592850
H            2.73012307856846       -3.82959017220210       -0.20949063244787
C            2.17335303433185       -1.76811496304582       -0.24685328943828
O            0.99539202717950       -1.65735158348888        0.09228529347607
N            3.08227235212187       -0.76731090506104       -0.04095185963286
H            4.05367866337701       -0.97694600765008       -0.22655546558949
C            2.81245488367659        0.36822765740182        0.85034638462373
H            2.59355333090101       -0.00070196627052        1.85866521938753
C            4.02906218568009        1.29629189388066        0.89554834002198
H            4.26359915917355        1.69674320115779       -0.09551022481432
H            3.82360663794670        2.13537568033066        1.56451921073686
H            4.90928532295301        0.76817891020667        1.27868928016505
C            1.54111436893266        1.14233793610362        0.45194968989040
O            0.75646623199810        1.53346109959825        1.30308098719575
N            1.42232060719373        1.44672754288620       -0.86956326982570
H            2.06279958360789        1.01256070711534       -1.51798201105791
C            0.27326787848886        2.18489347594181       -1.38075567935755
H            0.23453054716541        3.18123237578010       -0.93493078599147
H            0.39234415259456        2.28933271315648       -2.46265355564935
C           -1.10043979172785        1.54550767645582       -1.08966496053157
O           -2.05678300488155        2.24455643901941       -0.80017106780683
N           -1.19115102060205        0.20489887606214       -1.35403256888028
H           -0.32743046145075       -0.32449835508474       -1.31419320008544
C           -2.41047781297669       -0.53935223031576       -1.02146833176035
H           -3.24028890918248       -0.06097330533711       -1.54484182864666
C           -2.27004703650462       -1.99344670898098       -1.47705788348596
H           -1.42814349965240       -2.48177517784064       -0.97613044079099
H           -3.18289088965635       -2.54416728877348       -1.23233924834888
H           -2.11502945581746       -2.04468755692102       -2.55933782149063
C           -2.82319029804997       -0.46481789374448        0.46861001838447
O           -4.00439640718832       -0.33864656611473        0.77235043479814
N           -1.82105633624089       -0.68193498052996        1.36453205171089
H           -0.86541791198895       -0.68675116837931        1.03514269105683
C           -2.03345197006885       -0.55846572699098        2.79514159865939
H           -3.10390723744591       -0.42831599693451        2.96070660774919
H           -1.69641269188883       -1.45944152597983        3.32138191731919
H           -1.49658822469211        0.30764518224395        3.19749458732473
