17

C           -0.61880295602881       -0.00685899974135        0.49884996440389
C           -1.67862388082143        1.05136192547428       -0.00739599924979
C           -1.64753388305162       -1.04247692580092        0.05649799598418
C           -2.53724381990170       -0.14266698993440       -0.36378497394064
H           -2.06576285321984        1.71226287864857        0.77021894550584
C            0.69573095057045       -0.01519399908056       -0.20144398547512
H            0.65026295397531       -0.04177999709659       -1.28809690848133
C            1.88153886622812       -0.00038699999459        0.39769497188432
H            1.91337186425691        0.02118099838835        1.48404689465955
H           -1.62803088443196       -2.12378384926340        0.08135799415425
H           -3.52453074983962       -0.22102098423595       -0.79824594333900
H           -1.33355090516419        1.65901888223602       -0.84517393985903
C            3.20288977283186       -0.01047999905488       -0.30361197822528
H            3.07877478127608       -0.03214599788221       -1.38637690132278
H            3.79356773058312        0.87287093802088       -0.04661099661608
H            3.79866473002368       -0.87960093758764       -0.01219699918401
H           -0.47050296676117        0.03321499776197        1.58024488791983
