4

B            0.00000000000000        0.00000000000000        0.00000000000000
Cl           0.00000000000000        1.74930887599597        0.00000000000000
Cl           1.51494589226521       -0.87465493780586        0.00000000000000
Cl          -1.51494589226521       -0.87465493780586        0.00000000000000
