16

C            1.73169200757400        0.01847300008080        0.55737000243780
H            1.27002800555480       -0.41693500182357        1.44910900633805
O            2.10112500918981       -1.00155100438054       -0.36648300160291
C            0.82498300360828        1.08086700472745       -0.05780900025284
H            0.63560900278000        1.84883900808637        0.69828400305413
H            1.36676100597788        1.56120900682835       -0.87397500382255
C           -0.50626500221428        0.54725400239356       -0.59258700259183
H           -0.33353900145882       -0.19214100084038       -1.37768900602568
H           -1.06268300464791        1.36073000595150       -1.05998600463612
H            1.30431700570476       -1.48186600648132       -0.60543800264804
H            2.66829701167048        0.47665800208479        0.87068100380814
C           -1.39222300608925       -0.06729000029431        0.47684900208562
H           -0.91249100399101       -0.94394500412859        0.92364800403981
H           -1.56434000684204        0.66157000289355        1.27642800558279
O           -2.61868101145347       -0.43727600191254       -0.14880700065084
H           -3.18063301391131       -0.83932200367099        0.51832800226704
