8

C            0.00000000000000        0.00000000000000        0.76298818838020
C            0.00000000000000        0.00000000000000       -0.76298818838020
H           -0.88280903626968        0.50969003473333        1.15804011492904
H            0.00000000000000       -1.01938006946667        1.15804011492904
H            0.88280903626968        0.50969003473333        1.15804011492904
H            0.88280903626968       -0.50969003473333       -1.15804011492904
H           -0.88280903626968       -0.50969003473333       -1.15804011492904
H            0.00000000000000        1.01938006946667       -1.15804011492904
