16

C           -0.13028685963235       -0.89606284506038       -0.43790480994506
Cl           2.39496898409427       -0.51639819303736        2.51385458498044
N            2.01438670185705       -0.03990979913881       -1.01688715207374
O            0.59278933794865       -0.66851760670112       -2.77290780863985
Al           1.46623163091348       -0.40947072454057        0.65468968857212
C           -0.17896090324886        1.63873298540811        0.63465355466239
S           -2.46455859603876       -0.03588495153300        1.15353821386009
H            0.86168552777119        1.67239140284387        1.02927682746097
H           -0.75590137667460        2.19761778208348        1.37865189221618
H           -0.61536204776036       -1.86073876129821       -0.57790527735250
N           -3.18322439841442       -1.43252202359390        0.68099773502076
H           -0.12863523976291        2.22553145159613       -0.29129216426658
C            0.84051052692061       -0.52838851921073       -1.59034388939433
B           -0.84621951947397        0.20493001985870        0.32647740283636
H           -2.59991861782974       -1.87061636153730       -0.04921724306555
H            2.73249484933078        0.31930614386105       -1.63568155487168
