4

Ne           1.10711553272020       -1.10711553272020        1.10711553272020
Ne          -1.10711553272020        1.10711553272020        1.10711553272020
Ne          -1.10711553272020       -1.10711553272020       -1.10711553272020
Ne           1.10711553272020        1.10711553272020       -1.10711553272020
