10

C            0.61002013800053       -0.39591550092570        0.00000000000000
C            1.84275922253980        0.11826731717421        0.00000000000000
C           -0.61002013800053        0.39591550092570        0.00000000000000
C           -1.84275922253980       -0.11826731717421        0.00000000000000
H            0.48339200931450       -1.47609367203328        0.00000000000000
H            2.01035239766331        1.19008958268331        0.00000000000000
H            2.72180759146363       -0.51363111384660        0.00000000000000
H           -0.48339200931450        1.47609367203328        0.00000000000000
H           -2.01035239766331       -1.19008958268331        0.00000000000000
H           -2.72180759146363        0.51363111384660        0.00000000000000
