42

C            2.77723968727561       -0.48089267061246       -2.08002314810114
C            3.35680141101957       -0.30219352413466       -0.86456735865609
C            2.56069956109937       -0.18973842208651        0.30489856262622
C            1.14169980583410       -0.23710010907391        0.21129092750642
C            0.57838515583544       -0.76421927421473       -1.01373370209413
C            1.38757578779783       -0.75348870906680       -2.17542555055006
C            0.82560040957402       -1.05942176122289       -3.45017882694051
C           -0.46801860300774       -1.44052462947238       -3.57328631162849
C           -1.26451789902102       -1.66124444693392       -2.41347108689403
C           -0.72661772592719       -1.39004028292234       -1.12276219793516
C            3.18749517434390       -0.03356303525112        1.56915825521075
C            2.44398956884151        0.08169406501187        2.70048076045970
C            1.03767088759590        0.25472715989476        2.61519928316184
C            0.39437024275847        0.24031762439190        1.35543030413695
C            0.28236081940616        0.48810041237863        3.80302923559677
C           -1.03907042414481        0.78387157228145        3.74896867283113
C           -1.67488850570840        0.99825113782364        2.49175219781158
C           -0.94268802679385        0.79582545278740        1.28758278856083
C           -1.47885333132821       -1.81695530760418       -0.00735803211046
C           -2.73073232191732       -2.36522948405693       -0.14928966276305
C           -3.29701944662106       -2.53000404942450       -1.42262467418680
C           -2.56121043752820       -2.20333150215188       -2.53414657264488
H            3.37187078700502       -0.49313639420814       -2.98435884040827
H            4.43056493856884       -0.20517773401639       -0.76909033727185
H            1.46155889041577       -0.97246639421825       -4.32150626995905
H           -0.89617748667867       -1.64596279891375       -4.54583264903740
H            4.26883570696551       -0.04979604390805        1.61325938929484
H            2.91410296281442        0.11862518174980        3.67487549771593
H            0.79368493565498        0.41673579923598        4.75441529230793
H           -1.61231056617319        0.93135708947280        4.65513258306293
C           -3.00203535965934        1.47201870188799        2.43207424793448
C           -1.54374693510024        1.22000681245442        0.08334765158378
H           -1.06318008769663       -1.71933686394074        0.98136706048670
H           -3.27925133782054       -2.67671472381950        0.72949314628511
H           -4.29088629389463       -2.94464690365311       -1.52557052160988
H           -2.95762796881261       -2.38038703956106       -3.52626117444505
C           -3.58214308229861        1.80041524117122        1.23207877135538
C           -2.82843354637600        1.70520836200842        0.05210318188630
H           -3.54705613500032        1.60048412594005        3.35921811642680
H           -4.59938154422081        2.16709874794110        1.19886847024561
H           -3.25871752309534        2.02088516687465       -0.88889128301887
H           -0.98160721576232        1.17123839846396       -0.83439317588939
