13

C           -1.73613514339144       -0.77847894969604       -1.36192082320598
H           -1.19162394449659       -1.71314916327250       -1.55374733958693
H           -1.94281611123722       -0.29608784268677       -2.33168269870955
H           -2.71806986997660       -1.03494487535886       -0.93096657941916
C           -0.96906498877253        0.13204319485313       -0.45788160797677
H           -1.44254388327620        1.09011740762491       -0.21194895998877
C            0.24300950263561       -0.13261831338551        0.06803876744251
H            0.72927848882776       -1.08661862597689       -0.16954567955781
C            0.97029173527980        0.76861046014488        0.94115408516158
H            0.47588682356930        1.71784223195006        1.17669870705191
C            2.18409664209439        0.51704862385207        1.46372409535199
H            2.68628613386035        1.23243461015288        2.11437577518044
H            2.71140461488338       -0.41619875820136        1.25370225825657
