10

H            0.00000000000000       -1.42064140512170        1.71659488951821
C            0.00000000000000        0.67017019111120        0.92994066518947
C            0.00000000000000       -0.67017019111120        0.92994066518947
C            0.00000000000000        0.78631122423092       -0.58457576670240
C            0.00000000000000       -0.78631122423092       -0.58457576670240
H            0.89010925383082       -1.24659935549045       -1.03097989400264
H           -0.89010925383082       -1.24659935549045       -1.03097989400264
H            0.00000000000000        1.42064140512170        1.71659488951821
H           -0.89010925383082        1.24659935549045       -1.03097989400264
H            0.89010925383082        1.24659935549045       -1.03097989400264
