10

C           -1.84269642713932       -0.11821554698570        0.00000000000000
C           -0.60989391111247        0.39584739548311        0.00000000000000
C            0.60989391111247       -0.39584739548311        0.00000000000000
C            1.84269642713932        0.11821554698570        0.00000000000000
H           -2.01011675597627       -1.19008789599330        0.00000000000000
H           -2.72187999098889        0.51347957947081        0.00000000000000
H           -0.48338193259878        1.47603478602647        0.00000000000000
H            0.48338193259878       -1.47603478602647        0.00000000000000
H            2.01011675597627        1.19008789599330        0.00000000000000
H            2.72187999098889       -0.51347957947081        0.00000000000000
