4

Na           0.00000000000000       -1.42096394440694        0.00000000000000
Na           0.00000000000000        1.42096394440694        0.00000000000000
H           -1.59003631168322        0.00000000000000        0.00000000000000
H            1.59003631168322        0.00000000000000        0.00000000000000
