12

C           -0.69763086444070        0.00000000000000        1.20694534285594
H           -1.22619663515709        0.00000000000000        2.15009964468089
C           -1.39397614554043        0.00000000000000       -0.00108105252338
H           -2.47562330241667        0.00000000000000       -0.00158772825533
C           -0.69701711932870        0.00000000000000       -1.20870077976346
H           -1.23747773853651        0.00000000000000       -2.14555781526286
C            0.69701711932870        0.00000000000000       -1.20870077976346
H            1.23747773853651        0.00000000000000       -2.14555781526286
C            1.39397614554043        0.00000000000000       -0.00108105252338
H            2.47562330241667        0.00000000000000       -0.00158772825533
C            0.69763086444070        0.00000000000000        1.20694534285594
H            1.22619663515709        0.00000000000000        2.15009964468089
