20

C           -2.92409799558463       -0.88753767217319        0.39629818184171
C           -1.94586393495994       -0.00459119929391       -0.38011138258702
C           -0.54215341425957        0.02247292036821        0.23052142858350
C            0.43406210063743        0.91545418110723       -0.54079181068879
C            1.84024529304542        0.95423755744275        0.05920623670767
C            2.62050795595964       -0.32652177635488       -0.12789242431963
O            3.67714796897496       -0.39651842185183        0.72332951315236
O            2.39006293269794       -1.19021158716753       -0.93628728129898
H            4.15159293628217       -1.21861345033305        0.52096987023178
H           -3.91394066505491       -0.88834725503548       -0.06615316442830
H           -2.57524532802506       -1.92312036393038        0.43518424284440
H           -3.03985327697224       -0.53922830216989        1.42659002077085
H           -2.33843974245676        1.01750497391083       -0.43084729769400
H           -1.87872109400157       -0.35713048384950       -1.41505054587635
H           -0.60737185558002        0.37010932994943        1.26917970807062
H           -0.14907821323032       -0.99868027294977        0.26749556550048
H            0.04528800353912        1.93837878022554       -0.56706678645684
H            0.49964500405233        0.57539523260520       -1.57768834152286
H            2.43818380203604        1.74252491126065       -0.41210938813997
H            1.81802952290002        1.19442289823951        1.12522365530937
