11

C           -1.59110744121130        0.14891059953464        0.00000000000000
C           -0.26650084368521       -0.49203555333797        0.00000000000000
C            0.89173178204713        0.11531627237784        0.75467228343904
C            0.89173178204713        0.11531627237784       -0.75467228343904
H           -2.11863337144167        0.33486001150646        0.92831665498138
H           -2.11863337144167        0.33486001150646       -0.92831665498138
H           -0.28087140694090       -1.58319781401659        0.00000000000000
H            1.57611424962194       -0.54811489199182        1.26856486448367
H            0.72002718569129        1.06109999201747        1.25376594755267
H            1.57611424962194       -0.54811489199182       -1.26856486448367
H            0.72002718569129        1.06109999201747       -1.25376594755267
