14

C           -0.48907996505876       -1.39312990104784       -0.47820996610369
N            0.09743999334135       -0.12269999127338        0.07080999476941
C           -0.61845995606096        1.15425991818688       -0.29293997939050
C           -2.01440985675350        1.26967991008852        0.32020997705238
H            0.16075998846712       -0.22168998435376        1.09465992243479
H            1.06728992403865       -0.09039999382678       -0.27443998061051
H           -0.53071996250326       -1.31086990687476       -1.56829988874460
H            0.18923998633497       -2.20024984352435       -0.18739998690082
H           -1.48929989448353       -1.56559988902849       -0.07198999486093
H           -2.44030982686776        2.25122983990840        0.07775999446984
H           -2.70050980801517        0.50664996399534       -0.06608999546169
H           -1.97633985969800        1.18359991580751        1.41492989971605
H           -0.65150995372268        1.19467991503449       -1.38857990150665
H            0.03241999790436        1.96866986042606        0.04908999658278
