28

N            0.64748501923762       -0.92328857714506       -0.31581785293942
H            0.24873868330312       -1.01354204393445       -1.23548390028135
C           -0.25888178781054       -0.86787766954480        0.81965980922349
H           -0.12355872225006       -1.75745631144193        1.43472886824129
C            0.02735742702495        0.35005583376122        1.70846909055085
C           -1.71534511793374       -0.87411484195813        0.37549601275406
H            1.07320609259168        0.30242935095799        2.00474511868149
H           -0.58275308686515        0.25575486980857        2.60689945953271
C           -0.27933568935251        1.70513410340184        1.05972484586145
O           -2.57740983696659       -1.39728654343749        1.07003133563713
H           -1.33956153739129        1.80220608961582        0.83797683040159
H            0.00075824491106        2.49236168483213        1.75845183390106
C            0.47983306620701        1.93130092931700       -0.21632078391928
O            1.77765116284386        2.20190960463664        0.01171774795169
O            0.01183447169196        1.89025301765813       -1.33936744754288
C            1.95713232820144       -1.27358541237411       -0.14515260481690
C            2.73874142576003       -1.45592798370073       -1.42438595322466
O            2.45807181603040       -1.42151120740090        0.96103532677188
H            2.89964498229241       -2.52004243703282       -1.58821654306665
H            3.71217492805596       -0.98910893172071       -1.30349995569948
H            2.23447384221004       -1.03546790680725       -2.29162705753048
N           -1.98884630602530       -0.26678988852990       -0.81301157878886
C           -3.37793599280926       -0.13342196989563       -1.21477435632443
H           -1.33804010866236        0.43037930727663       -1.15693494945647
H           -3.93575331428350        0.51185554148876       -0.53566635231990
H           -3.41200455919702        0.27951314262922       -2.21827305984809
H           -3.85063558136685       -1.11099856759581       -1.20853178924166
H            2.18607714037540        2.30902081460669       -0.86096610858773
