5

N           -6.06210715973508        1.07714819331761        0.12402690101301
N           -4.94801505846677        1.43880826780977        0.40939130116296
N           -7.18169604006818        0.75794177597438       -0.14863492933740
F           -2.79019322181358        0.08212056391567        0.39201212194111
H           -3.63394740197038        0.58534223853320        0.39040002219802
