29

N           -1.65143305279845        0.10511682674544       -0.30625173167942
H           -1.51333349937447        0.36258778174721       -1.27642076102183
C           -0.73395180437423        0.75903914619237        0.59831648039891
H           -1.29238534967947        1.41997049068905        1.26644979725702
C            0.03487203186549       -0.26794920013742        1.45075323900236
C            0.21904758122928        1.57322918785683       -0.27519264062868
H            0.54440170604421        0.23427576366799        2.27477726697260
H           -0.70736375791739       -0.92762603907577        1.90142148451032
C            1.05008779261218       -1.00798666400860        0.65858371891690
O            0.12803812832874        1.57007883162121       -1.49984938288112
N            0.73724391637589       -1.79490442542674       -0.42162921857307
C            2.42862701425287       -1.05978041354361        0.73019312524725
H           -0.19324567001639       -1.92752804526424       -0.78217882248685
C            1.90025801843821       -2.27089892123639       -0.94539057049836
N            2.95121206462486       -1.84640419011258       -0.26365022241435
H            3.05933285770534       -0.57793711871829        1.45899223180397
H            1.92512271377331       -2.91217723203566       -1.80931405765408
C           -2.87712825826421       -0.30126390803720        0.14119134344807
C           -3.84277228000434       -0.74135638071896       -0.93147282620414
O           -3.15890969022890       -0.32301668676006        1.33251724071979
H           -4.67932451177601       -0.04574320958987       -0.94768474499386
H           -4.23494029217417       -1.72031588753103       -0.66871633298195
H           -3.39201231248600       -0.78022258448406       -1.91990975646216
N            1.15074959819168        2.28516107069184        0.39206018892403
C            2.23420261359703        2.92959105763488       -0.32627031881567
H            1.25479951519781        2.12282982886640        1.37786568260292
H            2.71887687820749        3.64477587910080        0.33112481427830
H            2.96511564878917        2.20115544524058       -0.67680790127960
H            1.82529639483280        3.45002261478887       -1.18638232691949
