37

O            3.39308109778107       -2.13886487539188        0.34654054224613
C            3.28608109725444       -0.97386486965801        0.03954054073515
O            3.45508109808622       -0.54486486754657       -1.21245946542692
H            3.40508109784013        0.44213513731123       -1.21845946545644
C            2.99608109582713        0.11413513569688        1.07254054581934
H            3.90408110029610        0.71113513863519        1.18954054639519
H            2.77608109474433       -0.37786486672463        2.01454055045566
N            1.89008109038364        0.99913514005266        0.74654054421485
H            1.04708108623458        0.99913514005266        1.31254054700057
C            2.00108109092996        1.95313514474803       -0.18945946039194
O            2.98608109577791        2.06213514528451       -0.93245946404882
C            0.82508108514195        2.91313514947294       -0.28345946085458
H            1.03808108619028        3.60513515287881       -1.09145946483138
H            0.73908108471867        3.46213515217499        0.65554054376696
N           -0.43091892103981        2.24513514618519       -0.54545946214409
H           -0.85191892311187        2.23613514614090       -1.46445946666720
C           -1.16191892463763        1.68413514342408        0.43354054267433
O           -0.78391892277720        1.62313514312385        1.60854054845742
C           -2.51291893128695        1.13813514073678       -0.01745945954539
N           -2.56791893155764        1.08413514047101       -1.47745946673119
H           -3.52991893629239        1.06213514036273       -1.78945946826678
H           -2.13791892944128        0.22013513621859       -1.79445946829139
H           -3.24891893490937        1.87613514436906        0.31354054208371
C           -2.80891893274379       -0.19286486581410        0.70154054399337
H           -2.80891893274379       -0.00886486490849        1.77554054927935
H           -3.81091893767542       -0.51186486738415        0.41054054256113
C           -1.79791892776788       -1.24686487100165        0.35654054229535
C           -1.91191892832896       -2.00686487474220       -0.81445946346805
H           -2.79791893268965       -1.90686487425003       -1.43145946650478
C           -0.91691892343179       -2.91386487920626       -1.17945946526450
H           -1.01991892393873       -3.48586488202151       -2.09145946975316
C            0.20108108207076       -3.08686488005773       -0.36745946126801
H            0.98708108593927       -3.77286488343406       -0.65045946266088
C            0.30208108256786       -2.37286487654357        0.82554054460366
H            1.15808108678090       -2.53086487732122        1.46554054775360
C           -0.68391892228502       -1.45786487204015        1.17954054634598
H           -0.60691892190604       -0.89986486929380        2.10354055089370
