11

O           -1.72343757117871       -1.30912289640420        0.48350885506904
S           -1.53520798447537        0.24396859566813        0.17220870576220
O           -2.42759087689898        0.64613867515999       -0.87222349874441
O           -1.41355995387079        0.89035679994222        1.43698336739227
O           -0.06586719719852        0.24573951679433       -0.59351783116958
S            1.36137586836423        0.12591621564084        0.27091155864992
O            2.27548591975993       -0.13523732234947       -1.00931922742664
O            1.65008952088186        1.41502722885556        0.82289522614347
O            1.33946087252250       -1.08526596441223        1.02361616973193
H           -1.98448218757930       -1.76592009825845       -0.34043220466797
H            2.52373358967314        0.72839924936329       -1.39463112074025
