8

H            0.67334595231654        0.00000000000000       -0.24411498258387
H           -0.67334595231654        0.00000000000000       -0.24411498258387
H            0.00000000000000        0.80996194266374        1.82137887080929
H            0.00000000000000       -0.83912694032237       -1.73064287697080
N            0.00000000000000        0.00000000000000       -1.16503291737166
N            0.00000000000000        0.00000000000000        1.20885591421817
H            0.00000000000000       -0.80996194266374        1.82137887080929
H            0.00000000000000        0.83912694032237       -1.73064287697080
