15

C           -0.12500999108929        1.39720990073645        1.91373986414374
C            0.00798999961068       -0.03241999790436        1.37938990208095
N            0.02814999819653       -0.04901999649214       -0.15159998915586
H            0.98656992974284       -0.04946999662122       -0.53157996225605
H           -0.45483996744377       -0.88603993731436       -0.51062996400805
H           -0.45148996771761        0.78082994449599       -0.53204996210863
H           -0.83450994059615       -0.66892995261623        1.72069987795354
H            0.92812993435876       -0.50887996385886        1.70956987835943
H           -0.02911999801614        1.36827990273953        3.00297978689362
H            0.67624995196416        2.06629985325746        1.46217989633550
H           -1.11048992108393        1.84736986884869        1.69550987958297
O            2.12465984921833       -0.08249999403025       -1.83536986964004
N            1.39319990113848        0.00118999995327       -2.92541979230476
O            1.93541986235418       -0.07586999466856       -4.03752971321835
O            0.12724999081457        0.18733998667193       -2.79525980150217
