28

N            0.50100813849558        0.86802029767728        0.36484789004504
C            0.39399163727536       -0.34128939511443       -0.43799700530915
C           -0.84897340531480       -1.16073103371663       -0.04994320000046
O           -0.77969170539454       -2.29124386502668        0.42285092461515
C            1.68187244898762       -1.15948025857210       -0.36153101314937
C            2.79739650037664       -0.46476468705180       -1.13393912134511
C            2.11772617653684       -1.45337922646730        1.07203834165357
H            1.03422898613717        0.82669347866426        1.21601970381927
H            0.24384934320098       -0.00104304178821       -1.46545580450817
H            1.45152197674222       -2.11312241222648       -0.83745315264395
H            2.53060461617243       -0.32634746198345       -2.18136339342258
H            3.71583440506283       -1.04924528724295       -1.09158897172388
H            3.00739193582069        0.51727985159926       -0.70811793648370
H            1.30271334309955       -1.87831015345314        1.65230448485855
H            2.94148992725439       -2.16603453312100        1.06779620560027
H            2.49338704184251       -0.55564363774239        1.56935395146370
N           -2.00434588842801       -0.50571028428126       -0.30252068748413
H           -1.93168513410544        0.42758647230435       -0.69076414397462
C           -3.29498341978490       -1.07161593306632        0.02117530696887
H           -3.94413611478146       -1.06880865418487       -0.85200263499856
H           -3.13452591737340       -2.09531295902037        0.34472287222848
H           -3.78113447101446       -0.51776957210434        0.82339964118714
C           -0.15031989244956        2.01545531981743        0.06088717363559
O           -0.91899053837773        2.10581866416735       -0.89767527103045
C            0.12793797941671        3.18802130602080        0.96647212591689
H            0.53692513074197        3.99589536820462        0.36425429909328
H            0.82034656961639        2.95559555182262        1.77170372440878
H           -0.81349764309340        3.53369808682264        1.38648269973803
