11

B            0.53662799583697       -3.56032839558419       -0.05474853644533
H            0.79044239563717       -3.54528395129379        1.10810992753294
H           -0.59669991050312       -3.48300864225349       -0.41480186309328
H            1.39396256560193       -3.79677156797200       -0.84640052860179
P           -0.19948516583190        3.52413619537020        0.59523347287533
H           -0.25148918150459        3.62722841780391       -0.80503013319237
H           -0.25163482328393        4.91240063639960        0.80881855787588
H           -1.58365967221534        3.33839247219155        0.74880405012800
O            0.86547292909571       -1.15157888844475       -0.25911047747532
C            0.04997778026343       -0.33954501435544       -0.38039628353417
O           -0.75351491309603        0.47435873813839       -0.50047818606991
