17

C            0.27500598061763        0.07794299453292       -0.16825398816131
C           -1.21475891352302       -0.21185898516401       -0.46085796754010
C           -0.09832099296257        1.45300489696702        0.19032398627195
C           -1.40726990030587        1.24700191170470       -0.04390699684943
H           -1.40599790011035       -0.38346097276162       -1.52407689160697
C            1.38004390214154       -0.65690895353915       -0.21009998529800
H            1.29335890802214       -1.69240087985891       -0.52446596260030
C            2.75020980463181       -0.17108098776215        0.14747298953491
H            2.73756180570297        0.87444493806313        0.45364096777367
H            3.17726877443998       -0.75715394646798        0.96572393122128
H            3.43692075607227       -0.26629298100066       -0.69796595062944
H            0.46989396687224        2.31316383577963        0.51553096361817
H           -2.28675183758068        1.87029286728514        0.02986199813020
C           -1.89044286600924       -1.28476690900786        0.37908897308804
H           -2.97289778915894       -1.26840790989299        0.23745798301335
H           -1.53431989123946       -2.27839583837303        0.10291799243611
H           -1.68183288075057       -1.13179991964687        1.43877389774992
