12

N            0.68562840350664       -0.13383379696927        1.35697840497188
C           -0.51328085288601        0.26749735832423        0.61128662127287
C           -0.48402932782690       -0.33088458282451       -0.79966194739524
N            0.65154311936046        0.06259252344491       -1.63009290084163
H            0.63784587971370       -1.11371111481561        1.61607405635247
H            0.78869829417198        0.39961028271052        2.21168996018490
H            0.58468083486357        1.04487708560155       -1.87661214180024
H            1.50542632756764       -0.04554715035343       -1.09113982978310
H           -1.45605714623265       -0.01862949192291        1.10448678092117
H           -0.50925964513257        1.35936973950108        0.53579650160198
H           -1.40822019041581       -0.06702668084910       -1.32162924290243
H           -0.48297569669003       -1.42431417184745       -0.71717626258262
