4

N            0.00000000000000        0.00000000000000        0.11361499171904
H            0.00000000000000        0.93799093366295       -0.26510098128670
H           -0.81232394207829       -0.46899596690394       -0.26510098128670
H            0.81232394207829       -0.46899596690394       -0.26510098128670
