22

C            0.00000000000000        0.00000000000000        0.73958310323476
C            1.13155820494916       -0.39972450174830        1.45794120637668
C            1.13199750495108       -0.40037330175113        2.84623841244875
C            0.00000000000000        0.00000000000000        3.54709671551414
C           -1.13199750495108        0.40037330175113        2.84623841244875
C           -1.13155820494916        0.39972450174830        1.45794120637668
C            0.00000000000000        0.00000000000000       -0.73958310323476
C            1.13155820494916        0.39972450174830       -1.45794120637668
C            1.13199750495108        0.40037330175113       -2.84623841244875
C            0.00000000000000        0.00000000000000       -3.54709671551414
C           -1.13199750495108       -0.40037330175113       -2.84623841244875
C           -1.13155820494916       -0.39972450174830       -1.45794120637668
H            2.00965980878977       -0.73622530322007        0.92192140403226
H            2.01610920881797       -0.72231280315922        3.38205521479229
H            0.00000000000000        0.00000000000000        4.62952292024841
H           -2.01610920881797        0.72231280315922        3.38205521479229
H           -2.00965980878977        0.73622530322007        0.92192140403226
H            2.00965980878977        0.73622530322007       -0.92192140403226
H            2.01610920881797        0.72231280315922       -3.38205521479229
H            0.00000000000000        0.00000000000000       -4.62952292024841
H           -2.01610920881797       -0.72231280315922       -3.38205521479229
H           -2.00965980878977       -0.73622530322007       -0.92192140403226
