16

C            0.41980500183613        1.91046900835593        0.39924900174622
H            1.05654100462105        1.91092400835791        1.29085600564589
O            1.19899100524410        2.09635500916895       -0.77850000340497
C           -0.41980500183613        0.63835400279200        0.36282700158692
H           -1.08082100472725        0.63727900278730        1.23574700540485
H           -1.04862200458642        0.67720100296191       -0.52955500231615
C            0.41980500183613       -0.63835400279200        0.36282700158692
H            1.08082100472725       -0.63727900278730        1.23574700540485
H            1.04862200458642       -0.67720100296191       -0.52955500231615
H            1.86786700816960        1.40760100615650       -0.79803300349040
H           -0.22870200100029        2.78307301217249        0.45652900199675
C           -0.41980500183613       -1.91046900835593        0.39924900174622
H            0.22870200100029       -2.78307301217249        0.45652900199675
H           -1.05654100462105       -1.91092400835791        1.29085600564589
O           -1.19899100524410       -2.09635500916895       -0.77850000340497
H           -1.86786700816960       -1.40760100615650       -0.79803300349040
