10

P           -0.29583688436326       -1.58651565242375        0.00000000000000
C           -0.08286082362927       -0.32282429205921        1.28601836673149
C           -0.08286082362927       -0.32282429205921       -1.28601836673149
C           -0.08286082362927        0.90939305932995        0.72894820787282
C           -0.08286082362927        0.90939305932995       -0.72894820787282
H            0.99164348278515       -2.19229782517354        0.00000000000000
H           -0.09867282813835       -0.52734035038068        2.34781166952114
H           -0.09867282813835       -0.52734035038068       -2.34781166952114
H           -0.08350882381406        1.83017832190859        1.30240537140455
H           -0.08350882381406        1.83017832190859       -1.30240537140455
