7

C           -0.01532699877651        1.20050991487228        0.00000000000000
P           -0.01532699877651       -0.47795096613876        0.00000000000000
H            0.29462097906480        1.67164088110095        0.92294793424117
H            0.29462097906480        1.67164088110095       -0.92294793424117
H           -0.68590495104699       -1.00382992873161       -1.11082392133496
H           -0.68590495104699       -1.00382992873161        1.11082392133496
H            1.10442992177991       -1.36941890270992        0.00000000000000
