7

F           -0.62643495561441        2.31978783533010        0.00000000000000
I            0.00000000000000        0.49172896532117        0.00000000000000
F            0.81818294188559       -2.04361285515681        0.00000000000000
C           -0.11769899145818       -3.08891378065296        0.00000000000000
H           -1.11443092073620       -2.65152981149923        0.00000000000000
H            0.04744599644989       -3.68109873879063        0.89681293649914
H            0.04744599644989       -3.68109873879063       -0.89681293649914
