7

C           -0.02568214179473       -0.62490990416178        0.00000000000000
C           -0.02568214179473        0.86613155591537        0.00000000000000
H            0.99397561437193       -1.02873561734722        0.00000000000000
H           -0.52372738112222       -1.02453395029263        0.88341901942818
H           -0.52372738112222       -1.02453395029263       -0.88341901942818
H            0.05242171573100        1.41829093308945       -0.92431912605899
H            0.05242171573100        1.41829093308945        0.92431912605899
