36

C           -0.78968808605735        0.78968808605735       -0.09340251729792
C           -0.78968808605735       -0.78968808605735        0.09340251729792
C            0.78968808605735       -0.78968808605735       -0.09340251729792
C            0.78968808605735        0.78968808605735        0.09340251729792
C           -1.60758266653267        1.60758266653267        0.91942770887075
C           -1.24698410252327        1.24698410252327       -1.49106556116923
C           -1.24698410252327       -1.24698410252327        1.49106556116923
C           -1.60758266653267       -1.60758266653267       -0.91942770887075
C            1.24698410252327       -1.24698410252327       -1.49106556116923
C            1.60758266653267       -1.60758266653267        0.91942770887075
C            1.24698410252327        1.24698410252327        1.49106556116923
C            1.60758266653267        1.60758266653267       -0.91942770887075
H           -1.36727089003774        1.36727089003774        1.95537925854349
H           -1.42692728832662        2.67788025123106        0.76935425815619
H           -2.67788025123106        1.42692728832662        0.76935425815619
H           -0.73173638740719        0.73173638740719       -2.30167386522005
H           -2.32046139119863        1.06760838542893       -1.60858609284012
H           -1.06760838542893        2.32046139119863       -1.60858609284012
H           -0.73173638740719       -0.73173638740719        2.30167386522005
H           -2.32046139119863       -1.06760838542893        1.60858609284012
H           -1.06760838542893       -2.32046139119863        1.60858609284012
H           -1.36727089003774       -1.36727089003774       -1.95537925854349
H           -1.42692728832662       -2.67788025123106       -0.76935425815619
H           -2.67788025123106       -1.42692728832662       -0.76935425815619
H            0.73173638740719       -0.73173638740719       -2.30167386522005
H            2.32046139119863       -1.06760838542893       -1.60858609284012
H            1.06760838542893       -2.32046139119863       -1.60858609284012
H            1.36727089003774       -1.36727089003774        1.95537925854349
H            1.42692728832662       -2.67788025123106        0.76935425815619
H            2.67788025123106       -1.42692728832662        0.76935425815619
H            0.73173638740719        0.73173638740719        2.30167386522005
H            2.32046139119863        1.06760838542893        1.60858609284012
H            1.06760838542893        2.32046139119863        1.60858609284012
H            1.36727089003774        1.36727089003774       -1.95537925854349
H            1.42692728832662        2.67788025123106       -0.76935425815619
H            2.67788025123106        1.42692728832662       -0.76935425815619
