16

C           -1.43892800629352       -0.10981500048031        0.53207100232715
H           -2.47233501081339        0.07457300032616        0.82488400360784
O           -1.47252700644048       -1.08355200473919       -0.50245100219760
C           -0.79821900349122        1.20408600526638        0.08704200038070
H           -1.45703800637273        1.69415300740981       -0.63220700276512
H           -0.73095900319704        1.86120600814046        0.95989600419835
C            0.59162800258764        1.05614300461931       -0.54380300237846
H            1.01260800442890        2.05246500897698       -0.69992400306130
H            0.50353100220232        0.59622700260775       -1.53047700669393
H           -0.58609700256345       -1.46237200639606       -0.50394500220414
H           -0.91677900400977       -0.50572400221191        1.40801200615830
C            1.58071100691365        0.23808400104132        0.28168800123203
H            2.60613801139861        0.47204800206462       -0.01113600004870
H            1.48113000647810        0.46927300205248        1.34252200587187
O            1.36071700595144       -1.17960700515932        0.16618900072687
H            1.84312700806139       -1.47756200646250       -0.60952700266592
