14

C            0.00000000000000        1.23639891228645       -0.08279599406577
C            0.00000000000000       -1.23639891228645       -0.08279599406577
C            0.00000000000000        0.00000000000000        0.80550594298723
C            0.00000000000000        0.66413895307294       -1.47535589505595
C            0.00000000000000       -0.66413895307294       -1.47535589505595
C            0.00000000000000        0.00000000000000        2.13055584856704
H            0.87495293813123        1.86728086733137        0.10165499301577
H           -0.87495293813123        1.86728086733137        0.10165499301577
H            0.87495293813123       -1.86728086733137        0.10165499301577
H           -0.87495293813123       -1.86728086733137        0.10165499301577
H            0.00000000000000        1.28434490870336       -2.36074083216479
H            0.00000000000000       -1.28434490870336       -2.36074083216479
H            0.00000000000000       -0.92169093463204        2.69815380841185
H            0.00000000000000        0.92169093463204        2.69815380841185
