16

C            1.39297700609254        0.25181200110136       -0.68529900299733
H            0.79834500349177        1.12132300490440       -0.97958000428445
O            2.21585200969160        0.55752200243847        0.44143000193071
C            0.49248800215402       -0.95647700418340       -0.46056100201438
H           -0.06948500030391       -1.13718300497376       -1.37811000602752
H            1.12064800490144       -1.83036700800558       -0.27915200122094
C           -0.48730000213133       -0.80134000350487        0.70666800309079
H            0.05927200025924       -0.73509800321514        1.65125900722220
H           -1.10990800485447       -1.69510200741396        0.77012700336835
H            1.64205200718194        0.87362700382103        1.14331700500059
H            2.08573700912251        0.04356600019055       -1.49880900655543
C           -1.39679800610925        0.41135000179915        0.59237900259092
H           -2.10444100920432        0.41667400182243        1.42643700623889
H           -0.81379600355934        1.33754000585007        0.64782600283343
O           -2.08292900911023        0.32919900143984       -0.65494800286459
H           -2.68001401172173        1.07918200472008       -0.71428800312412
