59

H           -3.50788454751594       -2.35384558056458       -3.69030153627748
O           -3.32155936080629       -1.88221911396270       -2.86294709500149
C           -4.04564130959918       -0.64229930205312       -2.88734019323907
H           -5.10632403387627       -0.81749108920508       -3.10410907771554
H           -3.63881153835155        0.03608035005519       -3.64959423906771
C           -3.90673811903620        0.03634864978043       -1.54431428862035
H           -4.41149358363644        1.00985418110153       -1.60000408495057
O           -4.53848327429767       -0.75577259387368       -0.49975296289043
C           -3.81564742565089       -0.63506110238926        0.71394265104975
H           -4.46568427966683       -0.28819422709978        1.51819369367386
N           -3.33236276016349       -1.98568290665344        1.11916322244541
C           -3.10602487583863       -2.97537763629350        0.19595598766666
H           -3.31704176119819       -2.69742305591456       -0.83234883898662
C           -2.66648000731075       -4.21047944845096        0.54622326310741
H           -2.50237101873321       -4.97384229410657       -0.20307698392411
C           -2.41828502503827       -4.52325762635689        1.92983846476800
O           -2.01998785319218       -5.60328704935591        2.38483623232688
N           -2.67000790689002       -3.45186490250032        2.80169430278311
H           -2.50291841869055       -3.61727599087313        3.79129963269599
C           -3.11477527558416       -2.18710969228167        2.47947292579796
O           -3.30134166232489       -1.30717655470387        3.31995506620284
C           -2.47313172088994        0.25297883479320       -1.05118782343632
H           -1.82843026699820       -0.58698730597168       -1.32515050419461
C           -2.66077060748850        0.34745262793921        0.46994146855427
H           -1.76522517106188        0.07456464735759        1.03796872817402
O           -3.10835877594327        1.65841493497594        0.82223234305002
H           -2.74661380184693        2.25297479281020        0.13406849218448
O           -1.95690015786599        1.47142114820646       -1.59482408512283
P           -0.36509617060610        1.53762504324185       -2.06399395182935
O           -0.21715038134197        2.91279864545998       -2.64022301106338
O           -0.00929489589225        0.29629443165856       -2.81901949834159
O            0.43497837263158        1.42274235142130       -0.64371065255545
C            0.35409717825708        2.50250097486195        0.31004317955713
H           -0.33846977255590        2.21586009503139        1.10754742282555
H           -0.00273649632391        3.41718370982556       -0.17567608581227
C            1.73485508015891        2.76198505650288        0.87448883975259
H            1.66771728471488        3.58561699804288        1.59898368806030
O            2.24248394420537        1.58255884020518        1.53968919213301
C            3.65238374412222        1.45078974956512        1.31477800819869
H            4.17805750660964        1.47290564797785        2.26919214075573
N            3.93099582453983        0.12406664385393        0.74654324866935
C            3.59481694828727       -0.16882503541582       -0.55532285877737
H            3.12009988198213        0.63620330714655       -1.10146502009575
C            3.81567243235051       -1.37599314950336       -1.12525131823407
H            3.54517795151527       -1.56339663638224       -2.15561714512927
C            4.40120099100461       -2.43757707421252       -0.34420077404664
O            4.65662157270236       -3.58344499326609       -0.73034724653961
N            4.65290647298049       -2.07867220002805        0.98876473147387
H            5.04172254554634       -2.80029814848336        1.59041378854470
C            4.44466928777512       -0.85946498635693        1.59850508801968
O            4.68275317100999       -0.66614050021036        2.78824940372129
C            2.77409900625664        3.11462313157518       -0.19282208468367
H            2.55435752224482        2.58241796919907       -1.12251191862872
C            4.09458101287609        2.62307566609969        0.42744177140046
H            4.83720016001937        2.31687458782639       -0.31833897568164
O            4.62644987466784        3.63818549445394        1.28051841091816
H            4.31565379721087        4.48314573403401        0.89264623809352
O            2.75932230732859        4.52404123153131       -0.42628676787347
H            3.06916838521863        4.68687471993525       -1.33285260388534
