16

N           -0.00424799969446        4.25887969750987        0.00000000000000
H            0.46291296691244        4.62946467110791        0.81612694183913
H            0.46291296691244        4.62946467110791       -0.81612694183913
H           -0.95006493248359        4.61538667236863        0.00000000000000
I            0.00259099979421        1.08211492308745        0.00000000000000
C            0.00000000000000       -1.01701492769806        0.00000000000000
C            1.20178491444423       -1.71168787839544        0.00000000000000
C            1.19558291519825       -3.09898177979428        0.00000000000000
C           -0.00390099967607       -3.79411473048249        0.00000000000000
C           -1.20143991471569       -3.09562377996704        0.00000000000000
C           -1.20371591436663       -1.70833187885806        0.00000000000000
H            2.14075484817280       -1.17375591685039        0.00000000000000
H            2.13569584841858       -3.63600474189353        0.00000000000000
H           -0.00542999954666       -4.87649465387527        0.00000000000000
H           -2.14304884778656       -3.63001374200603        0.00000000000000
H           -2.14118084799865       -1.16777891687519        0.00000000000000
