11

H            1.83052034111521       -1.89684624107635       -0.69396279108283
O            2.20228790261941       -1.15195445915665       -0.21661417719112
H            1.38056322514219       -0.68485638145057        0.15030980197479
H            0.00000000000000        0.00000000000000        1.62059288379761
H           -0.09717858829101        1.53803101522900        0.15030980197479
H            0.72745686128753        2.53370023808810       -0.69396279108283
O           -0.10352212567728        2.48321449969388       -0.21661417719112
O            0.00000000000000        0.00000000000000        0.66020861509986
H           -1.28338463685118       -0.85317463377843        0.15030980197479
O           -2.09876577694213       -1.33126004053723       -0.21661417719112
H           -2.55797720240275       -0.63685399701175       -0.69396279108283
