8

C           -1.17819794187529        0.00000000000000        0.16558423810780
C            0.00000000000000        0.00000000000000       -0.54301965332052
H            0.00000000000000        0.00000000000000       -1.62736545036324
C            1.17819794187529        0.00000000000000        0.16558423810780
H            1.17714063388250        0.00000000000000        1.25257671184927
H            2.14433949203450        0.00000000000000       -0.33296839811520
H           -1.17714063388250        0.00000000000000        1.25257671184927
H           -2.14433949203450        0.00000000000000       -0.33296839811520
