12

C           -1.11892811553563       -0.39300690850947        0.06045901366066
C           -1.06961551526732        0.98569172091403       -0.03334154171644
O            1.04351903104270        1.35627296963369       -0.21429351118168
N            1.47852939222142        0.22573743743899        0.22941621906741
C            0.95782295006561       -0.89868100093487       -0.27213196860469
H           -1.24594505617734       -0.86133034568361        1.03067145403122
H           -1.48801717977243       -0.97414854892606       -0.77721277611679
H           -1.09461968935603        1.61014781199814        0.84916015483759
H           -1.26644916124060        1.48844285327234       -0.97025932040017
H            1.75317154868959        0.20428366142785        1.21443317350776
H            0.82089694918706       -0.92013128596395       -1.34318460825983
H            1.22963484614297       -1.82327836466711        0.22628371117493
