8

C            0.00000000000000       -0.00000000000000       -0.75653070330888
C            0.00000000000000        0.00000000000000        0.75653070330888
H            0.87676740383477        0.50620190221401       -1.15187150503801
H           -0.00000000000000       -1.01240380442801       -1.15187150503801
H           -0.87676740383477        0.50620190221401       -1.15187150503801
H           -0.87676740383477       -0.50620190221401        1.15187150503801
H            0.87676740383477       -0.50620190221401        1.15187150503801
H           -0.00000000000000        1.01240380442801        1.15187150503801
