18

O           -2.12624296899100        0.91974979681823        1.82649584253319
H           -2.18812221631007        1.46201462332445        2.61584763833429
H           -1.59863576184974        1.42651821486234        1.17377165081266
O           -0.62420039406744       -1.35331657470049        1.17571027072867
H           -1.19880544917251       -0.67942873389688        1.58777590287580
H            0.27298325706181       -0.99630746016802        1.26452312688082
O            1.82876243965721        0.17548170906387        0.64226386384039
H            2.03924991053778       -0.20294550454066       -0.24015644792848
H            2.66325122350274        0.29793412375858        1.10137493394927
O           -0.84229947461823       -0.84385391677311       -1.44904388555308
H           -1.54547625415289       -1.31618202630936       -1.90165146594372
H           -0.86134234379319       -1.13663639408822       -0.49863663672975
O           -0.45371513145377        1.83282639725892       -0.19153922003484
H           -0.72816572956311        1.16381046624423       -0.83645461209369
H            0.40136884149947        1.50543038144345        0.13034230601955
O            1.89220427690858       -0.90998544390794       -1.87069724728482
H            2.15375507557681       -0.37201416721571       -2.62224923472361
H            0.91543069922758       -0.97309549117368       -1.90767678568267
