59

H            3.10211957661566       -5.07648171234860        1.85075626687229
O            2.66501880722989       -4.24584087156788        1.60398408442513
C            1.66295627852333       -3.96393829158053        2.59334821430692
H            2.07219334940064       -4.07403778340070        3.60471414246959
H            0.80904703899048       -4.64695744297171        2.48564502158058
C            1.15438991460484       -2.55224989174121        2.41018522709388
H            0.30926067487399       -2.39019410333350        3.08992347871910
O            2.21421053935397       -1.60242905917981        2.74929740300705
C            2.15756154318184       -0.47144233938238        1.89958346346858
H            2.13391634485503        0.44842169506820        2.48487282185228
N            3.40229035512672       -0.41325354336195        1.07452232223408
C            4.14909430180098       -1.53260036428017        0.81097614085288
H            3.77189882902147       -2.44997309909814        1.25354580907292
C            5.27886442202346       -1.49481386650694        0.05941189432205
H            5.84637848135066       -2.39617880283713       -0.13030329261913
C            5.73929798891124       -0.24817865502984       -0.49483486681133
O            6.74764761755530       -0.07295906755310       -1.19090801723369
N            4.91180734800470        0.84239706710764       -0.18021138870313
H            5.18570362866492        1.74921140315022       -0.55008616256244
C            3.75787972982247        0.83883626752281        0.57667525712618
O            3.09274497689500        1.85004919573684        0.79283534227188
C            0.75479204316637       -2.15111172038198        0.99252612766323
H            1.46485639244847       -2.55141799182750        0.26201047991174
C            0.89717103316633       -0.61648492911482        1.03464092459761
H            1.02741022380536       -0.17793126030397        0.04250679543825
O           -0.16237119198133        0.02125812544663        1.74781897428494
H           -0.93405123704230        0.10349681970779        1.15771991629368
O           -0.55273756432969       -2.64499808509923        0.71454674739429
P           -1.12763302343660       -2.56586249076540       -0.82848814269364
O           -2.08343705528422       -3.71043070931317       -0.96941193293520
O           -0.00794670305778       -2.30827400920817       -1.78727627468495
O           -1.97510906302497       -1.15643579062124       -0.75388644821354
C           -3.12413798140123       -1.10707059437158        0.11881698987395
H           -2.81956040293567       -1.30756107977252        1.15242931631216
H           -3.85773802954495       -1.86107964067515       -0.18568978838503
C           -3.73830383796583        0.26541500828206        0.01146549731798
H           -4.64288477365212        0.29777870596459        0.63171625362026
O           -2.77925250593007        1.23868493932532        0.52243676104751
C           -2.90854119692971        2.47199085156068       -0.17431828924554
H           -3.08987788404824        3.29119049368392        0.52142906105586
N           -1.62609788812126        2.77359093030991       -0.86620933999905
C           -0.77879224782823        1.77991500048322       -1.28909861034796
H           -1.10866692484007        0.77073697243271       -1.06532722597080
C            0.38235526948237        2.03754678249491       -1.93876506412924
H            1.03165802347083        1.23257743948732       -2.25583054160436
C            0.75999334290602        3.39744138601380       -2.22993224324124
O            1.78233016983010        3.77378845913417       -2.81315160219537
N           -0.18783379017114        4.34406631842791       -1.80464597369707
H            0.01635209527165        5.31952374952536       -2.00765495896844
C           -1.37444470578749        4.11518103480678       -1.14239652035294
O           -2.15696995044273        5.01298407139271       -0.83200714257059
C           -4.06385891496068        0.77599197201737       -1.39038360318704
H           -3.28206857044886        0.48256219307976       -2.09736725261314
C           -4.05931801515081        2.30032356402442       -1.17560341799934
H           -3.88555212774427        2.86967562355427       -2.09502115285707
O           -5.27289942894464        2.70181303549606       -0.54201016318815
H           -5.96324417996618        2.10604437762976       -0.89711843801014
O           -5.33291472455938        0.26650470798677       -1.79638237412222
H           -5.38495642082357        0.31118900477447       -2.76602050534509
