9

C            0.00000000000000        0.00000000000000        2.31301383573661
I            0.00000000000000        0.00000000000000        0.18016598731649
H            0.00000000000000        1.02830292690709        2.65774381142599
H            0.89053593696706       -0.51415096364567        2.65774381142599
H           -0.89053593696706       -0.51415096364567        2.65774381142599
H            0.00000000000000       -0.94224293287877       -3.39605375900119
H            0.81600594229480        0.47112096636692       -3.39605375900119
H           -0.81600594229480        0.47112096636692       -3.39605375900119
N            0.00000000000000        0.00000000000000       -3.03027478500366
