8

C            0.00000000000000        0.00000000000000       -0.76972907295378
C            0.00000000000000        0.00000000000000        0.76972907295378
F            1.07887392150068        0.62288814900008       -1.22321312989358
F           -0.00000000000000       -1.24577629800016       -1.22321312989358
F           -1.07887392150068        0.62288814900008       -1.22321312989358
F            1.07887392150068       -0.62288814900008        1.22321312989358
F           -0.00000000000000        1.24577629800016        1.22321312989358
F           -1.07887392150068       -0.62288814900008        1.22321312989358
