72

C           -0.93505133361847        1.36314570319940        0.36207047417383
C           -0.89016233679781       -0.18030778722945        0.09260889327820
C            0.63892705470350       -0.03882279714725        0.19239328612924
C            0.33861007617097        1.48058979475768       -0.14306898998621
C            1.15214041793347        2.58372551629971       -0.79193764403325
C            1.84372266891310        3.52078295014117        0.22685278380543
C            2.22700204181454        1.93715746229378       -1.68955518019379
C            0.24331018289349        3.43291295626396       -1.71092087836241
C           -2.09138125176409        2.23385544127347        0.79238204387991
C           -1.60046478619089        3.51983055022642        1.48952919437750
C           -2.99929228693836        2.61319641437029       -0.40604077120123
C           -2.94100469141595        1.42095239887703        1.79655637225310
C           -0.63760205476442       -1.71073267860406        0.24523938255502
C            0.63068965522154       -1.54703669008502       -0.29158207944586
C            1.31353450675217       -0.07877909452615        1.68544248052861
C            0.88385253727467        1.08132272310646        2.60887421450567
C            2.83700799875263        0.02336819839905        1.47093789559495
C            1.04038852635055       -1.36349800292756        2.50462012210931
C            1.56594878879307       -2.44240592637573       -1.06701792430636
C            2.31109153601673       -3.43864585578779       -0.14507828961462
C            0.73742514740325       -3.24150946964886       -2.10606315071152
C            2.58552911627941       -1.58439978735086       -1.83959216931408
C           -1.37122040238527       -0.20150288554458       -1.39111890117305
O           -0.72246154890525        0.02316649827170       -2.39513772976446
O           -2.68359880933465       -0.53914936176513       -1.41106569955241
C           -3.29508576606607       -0.62490375542498       -2.72176140658111
C           -1.51420379266584       -2.79790350152564        0.66136895326619
O           -2.64483221239473       -2.64619801189677        1.09093822228556
O           -0.89866343639669       -4.02554801401602        0.58549625820632
C           -1.70040057928786       -5.14442783498726        1.02888462707289
H            2.36022043241628        4.32357829293441       -0.31722217743082
H            1.11541332076539        3.97562201745451        0.90684003553383
H            2.58747121622299        2.98441978788475        0.82628834128735
H            2.90614089388379        1.30474280737122       -1.11041552141397
H            1.75057927595960        1.31668390651040       -2.45524942559172
H            2.81456910009555        2.72508820664917       -2.17973344514531
H           -0.28648747982396        2.78555740242903       -2.41829142829778
H           -0.49141376514892        4.00548031557764       -1.13809731896043
H            0.86190643859948        4.14485470563795       -2.27438503865912
H           -0.94400963280238        3.27696416709263        2.33242553435371
H           -1.05444442506198        4.17391810338879        0.80308464291608
H           -2.46694392497556        4.07706181050309        1.87027526738028
H           -2.43842052663876        3.14584077689778       -1.18015271628207
H           -3.44654725525804        1.71695767800833       -0.84584394012177
H           -3.81036672943613        3.26358296826675       -0.04969989660214
H           -2.36143013257876        1.18159981592491        2.69703980836042
H           -3.81787542914406        2.00982835740965        2.09763695085508
H           -3.27717936705981        0.48058846579285        1.34538110463528
H            1.41232719981371        0.97041223122654        3.56566064691167
H            1.12048342054079        2.06472615325868        2.20236264386509
H           -0.19320108625441        1.04592312571061        2.80533440107084
H            3.34442876227337        0.03427679765660        2.44530802627716
H            3.21793927160815       -0.83173374094920        0.90417443604067
H            3.10761947961085        0.94002233331922        0.93824103339637
H           -0.03152989802264       -1.48356949479285        2.70499500769018
H            1.39929360056401       -2.27364613846516        2.01987115660300
H            1.55772618933934       -1.26711550991599        3.46880875360530
H            2.97143558891521       -2.91657269283241        0.55663816057540
H            1.59996008660106       -4.04795551235576        0.42134637005134
H            2.92840209218757       -4.09871570916431       -0.76945044525542
H            0.01940029855245       -3.90104632303831       -1.61205578539158
H            0.20209038549261       -2.55131141872126       -2.76831180341053
H            1.42055619913663       -3.85198822631616       -2.71237600741193
H            3.20711097234648       -0.98645302973436       -1.16651591692567
H            3.23982547006895       -2.24390084084364       -2.42481902763574
H            2.06579225324733       -0.90432993582244       -2.52166392098597
H           -3.25202136909354        0.34867077531266       -3.22443177115089
H           -2.77477100288974       -1.37014660286821       -3.33447336304653
H           -4.32934449252176       -0.92465393436362       -2.53630732017460
H           -1.06604042445813       -6.02479817242658        0.89496023628275
H           -1.97929825929208       -5.02094084342817        2.08221295230827
H           -2.61312171465685       -5.22575782878775        0.42635666962684
