4

Ar           1.40119415366624       -1.40119415366624        1.40119415366624
Ar          -1.40119415366624        1.40119415366624        1.40119415366624
Ar          -1.40119415366624       -1.40119415366624       -1.40119415366624
Ar           1.40119415366624        1.40119415366624       -1.40119415366624
