33

N           -0.15051859525628        2.62448296523733       -0.12459377892513
C            0.90109232979199        1.99016000997800       -0.75370373433668
C            0.53095535603317        0.71745210079192       -1.12509570794394
C           -0.83231154673955        0.55765511165908       -0.69898573808694
C           -1.75927348115840       -0.49881481326244       -0.79296873154092
C           -3.03274439085615       -0.30989082668650       -0.28461976790845
C           -3.41316836374502        0.90817508721006        0.32133918936109
C           -2.51858842701501        1.96141901238455        0.42940718151049
C           -1.22923351877963        1.77182902559640       -0.08254078195132
H           -0.14707359552051        3.57640989769761        0.19275619850636
H            1.84268926324043        2.49514497450119       -0.89830472409909
H           -1.51269849871559       -1.43873474655794       -1.26935169797782
H           -4.42795629148517        1.01304207953140        0.68084516387708
H           -2.81705640586739        2.89790394580602        0.88287614922776
O           -3.96831232420157       -1.32146575444697       -0.41483775865006
C           -4.18006030915382       -2.02915670424987        0.80336115494245
H           -4.54065128375172       -1.36440975143294        1.59150809888077
H           -3.25686837500495       -2.50887267059504        1.13803513111296
H           -4.93119425576479       -2.78748865051951        0.59847516963716
C            1.40289329430502       -0.31126982651406       -1.77202266210538
C            1.78045726757300       -1.44225874610117       -0.80102673095237
N            2.42221022171792       -0.95206778089659        0.40659118323526
C            3.71960213002550       -0.53107581087777        0.38960018460235
C            4.20659209540202        0.12718014261383        1.66526509370879
H            2.32202722877866        0.15177514047857       -2.13215463632820
H            0.89841732999486       -0.75214979485728       -2.63623560054270
H            2.46903921870698       -2.12981169733159       -1.28875669615308
H            0.89204233054756       -1.99680570682040       -0.49998575226861
H            1.83289526359208       -0.62438080396792        1.15128513050376
O            4.44989807768680       -0.68521479970003       -0.58018274643910
H            5.13489602957785       -0.35106182336499        1.96932607244739
H            3.48669014650281        0.06910014648632        2.47954703591831
H            4.42531207953888        1.17320106821066        1.45514910873782
