12

C           -1.19880240524327        0.69212860302720        0.00000000000000
C           -1.19880240524327       -0.69212860302720        0.00000000000000
C            0.00000000000000       -1.38425390605439        0.00000000000000
C            1.19880240524327       -0.69212860302720        0.00000000000000
C            1.19880240524327        0.69212860302720        0.00000000000000
C            0.00000000000000        1.38425390605439        0.00000000000000
H           -2.13315490932990       -1.23157780538662        0.00000000000000
H            0.00000000000000       -2.46315181077323        0.00000000000000
H            2.13315490932990       -1.23157780538662        0.00000000000000
H            2.13315490932990        1.23157780538662        0.00000000000000
H            0.00000000000000        2.46315181077323        0.00000000000000
H           -2.13315490932990        1.23157780538662        0.00000000000000
