15

C           -1.72758557243441       -0.72077656601530       -1.42067688259989
H           -1.39712727085094       -1.76084382554730       -1.56128116786549
H           -1.22507204572390       -0.10658019227722       -2.18138870383733
H           -2.80981195220189       -0.68504669800940       -1.61173406141331
C           -1.39700103927860       -0.22025237397664       -0.00478141508212
H           -1.74569256019005        0.81782292844000        0.11737612351167
H           -1.96292323105377       -0.82709279701960        0.72436176669866
C            0.06795890969604       -0.29759560530301        0.31650641985320
H            0.51897016127155       -1.29772833664238        0.26816463708912
C            0.84953719189112        0.74129594449462        0.63489412078041
H            0.39638500722097        1.73955857997515        0.67868288933364
C            2.31384709524063        0.66308834172378        0.94632628279183
H            2.90447399707497        1.28276353091830        0.25199578494599
H            2.52875822146616        1.04067996571814        1.95936034564287
H            2.68528308787209       -0.36929289647911        0.88219386015077
