13

C           -0.61403508119178        0.17831284861165        0.12759140634444
H           -1.07129782553446       -0.17000833673060        1.06657121832984
C            0.88071201141527       -0.15903305505894        0.15289659267646
H            1.36163847232375        0.17337503853513       -0.78278803996053
H            1.37093735699866        0.38448797918950        0.97388694635092
N            1.14682724480710       -1.56883942302409        0.35215181304635
C            0.90476540667070       -2.61938544614093       -0.19663627962411
O            0.74516746595822       -3.71104330461201       -0.62475567685290
H           -1.09379536533459       -0.38852827616518       -0.68631876553770
C           -0.85846201030182        1.67740701929154       -0.05930726341435
H           -0.40203280711597        2.26301829104250        0.75267947408614
H           -0.43692949449348        2.03803200961223       -1.00936909745954
H           -1.93349537420160        1.90220465544917       -0.06660232798503
