10

O           -2.47497770929076       -0.77782096974250       -0.00556526126351
H           -2.83363433215781        0.10986150241305        0.02676705356453
H           -1.51347036262964       -0.64022599838006        0.01056294779436
N            0.44646314823502       -0.56289405906036        0.01991389011863
H            0.74182755830905       -1.11553199499923       -0.77487691656595
H            0.75654362093722       -1.07361511351678        0.83677332540323
C            1.10579837822781        0.74546981324236       -0.02032774490415
H            0.79525597827137        1.32719473183118        0.84418761354660
H            2.19710759078061        0.70617484397007       -0.02928341354815
H            0.77908612931713        1.28138724424226       -0.90815149414559
