7

C           -0.43697488561138        0.00006187395467       -0.34540538066577
C            0.88204164674494       -0.00002512611262       -0.08451519474053
H           -1.36298208697315       -0.00047712642572        1.40531974129576
H           -0.97079298065551        0.92066280190629       -0.53507360577537
H           -0.97112107052627       -0.92022300407193       -0.53555727374613
H            1.43003110749708       -0.92233442114344        0.04731607792605
H            1.42979826952429        0.92233500189275        0.04791563570600
