8

C            0.03925148519334       -0.10112706572143        0.00000000000000
C           -1.45506433719451        0.04523740974220        0.00000000000000
O            0.65089360567900       -1.13857853419482        0.00000000000000
O            0.65418861013434        1.10512065520577        0.00000000000000
H            1.60171874779365        0.91880319130834        0.00000000000000
H           -1.91467083238145       -0.93768218045666        0.00000000000000
H           -1.76593899640895        0.60800911731629        0.87958493738549
H           -1.76593899640895        0.60800911731629       -0.87958493738549
