33

N           -0.06489926838685        2.46166467360022       -0.51113656969420
C            0.93473966097357        1.67444372945478       -1.04490853212743
C            0.55560468756894        0.35141982380699       -1.02463653318489
C           -0.75754821891290        0.32124382567845       -0.44157957448337
C           -1.66866015442992       -0.71505410050561       -0.15858159502356
C           -2.88310106790406       -0.38998812401477        0.42045236431263
C           -3.22156104401751        0.94696578114832        0.72592334260899
C           -2.34605810608130        1.98562570727610        0.44997736175701
C           -1.11699219343933        1.65897873078685       -0.13581459644135
H           -0.04293226985772        3.46276760240689       -0.44685857437125
H            1.84888759621841        2.11518869834136       -1.40907350610651
H           -1.44545016992239       -1.75141802725894       -0.37611657940262
H           -4.17467697628614        1.14463476721635        1.19769030893543
H           -2.60642308785813        3.00865763492556        0.68946634489783
O           -3.77018800508481       -1.40182805208056        0.74462334126996
C           -4.83714892906790       -1.51073904416484       -0.19420659227734
H           -5.41614788809418       -0.58595710977157       -0.24488558843041
H           -4.45394095645999       -1.74508302778784       -1.19024852156911
H           -5.47622488365500       -2.31932198700102        0.15081438325209
C            1.38338462912751       -0.81785009325245       -1.45395750273171
C            1.85995959534431       -1.66019603336571       -0.25853958763370
N            2.57805954396653       -0.87505708933063        0.73043834184027
C            3.84826945413651       -0.43993412029979        0.49396735899362
C            4.41113941404334        0.51701681160481        1.52596928540595
H            0.81388666961967       -1.46576404758058       -2.12614545497009
H            2.26097256655050       -0.47153211813770       -2.00023946420236
H            1.01090965572819       -2.12221100083904        0.24416137660830
H            2.52470454787139       -2.44793997763647       -0.60893956272692
H            2.04121058221353       -0.39982812292135        1.43399829197169
O            4.49932940773011       -0.80418409442673       -0.47648257240496
H            4.54911040444407        1.49097074282311        1.05834831880821
H            3.77268045944624        0.62811080414946        2.40042522347576
H            5.38910434447536        0.15619683715642        1.83609526364404
