33

N           -0.75879788531252        2.64944362983055        0.52570799306898
C           -1.70342781858317        2.19564766234757       -0.36801294352399
C           -1.25059085038394        1.05631074312471       -0.99273189915420
C            0.04872905688208        0.79109176219928       -0.44690993820355
C            1.00997098889212       -0.21263616656657       -0.67506692157944
C            2.17755790598740       -0.19647916762254        0.06725002568812
C            2.42336888830279        0.80414676084622        1.03446095704312
C            1.50345995369505        1.81624668902187        1.26206394056349
C            0.32069903777189        1.80023969012086        0.51227999381057
H           -0.87910487691199        3.43007057453996        1.14469694906648
H           -2.64597875164907        2.70749662574922       -0.47401093624383
H            0.85963899935207       -0.99771311114127       -1.40523186983465
H            3.33935782365588        0.75816576451668        1.60805691620239
H            1.69241294024051        2.57931363518563        2.00620788802701
O            3.10278984050976       -1.21164509564045       -0.11138096194655
C            4.24399775942613       -0.78545612597599       -0.85119790937898
H            4.76568372235794        0.02822581606142       -0.34291894530797
H            3.95428877997814       -0.45205214971115       -1.85064983809661
H            4.90486271214558       -1.64483906503876       -0.92990090345960
C           -2.02699279555718        0.16276180658813       -1.90913483418154
C           -2.87742073485594       -0.84976912160885       -1.11739389060935
N           -2.10390478989667       -1.58180606970250       -0.13048196051440
C           -2.02416979547770       -1.15797309964137        1.17199994727759
C           -0.93209887307644       -1.81684705273871        1.98803088896219
H           -1.34147484397560       -0.37429415500199       -2.57004878712319
H           -2.69197974823129        0.74420676556105       -2.55209278833695
H           -3.35462170130875       -1.55578707130935       -1.79952984206047
H           -3.65397668012275       -0.32548215849190       -0.56489092978495
H           -1.35715784301651       -2.16995002798282       -0.45858393726224
O           -2.77156874265777       -0.31334115948624        1.64319291349583
H           -0.05862693526771       -1.16321609907441        1.98135188937830
H           -0.63860389421468       -2.78798498383368        1.59204691739578
H           -1.27632084869772       -1.92609604512456        3.01282281662259
