6

C           -0.00000000000000        0.00000000000000       -0.48614114443518
C            0.00000000000000        0.00000000000000        0.96537489349464
N            0.00000000000000        0.00000000000000        2.11454321290140
H           -0.51021468586125        0.88371775867949       -0.86459232065363
H           -0.51021468586125       -0.88371775867949       -0.86459232065363
H            1.02042937172251        0.00000000000000       -0.86459232065363
