33

N           -0.03142872495240        2.49498388356129       -0.35981136858554
C            1.01040920084515        1.79526693316691       -0.93340932750549
C            0.65147422653175        0.48095602660691       -1.12564831402686
C           -0.69774367747120        0.35996903488296       -0.64143634855817
C           -1.60336361345199       -0.70976288905180       -0.57091035314348
C           -2.87041152362518       -0.48779690491521       -0.04417239094278
C           -3.25113749636078        0.79266800450970        0.41607957661400
C           -2.36716955929502        1.86510392821110        0.35235758090724
C           -1.09570464927660        1.64007794404347       -0.17542338163849
H           -0.03332572470982        3.47988781368705       -0.16927038208554
H            1.94017913475708        2.28736789842545       -1.17045531060527
H           -1.35066163152013       -1.70094381870964       -0.92350232841388
H           -4.23653142659182        0.95870899262538        0.82283354745958
H           -2.67154653779265        2.84231485890664        0.70468755630711
O           -3.69764546490012       -1.58211482699789       -0.00932839310514
C           -5.00356237203696       -1.38554284116338        0.50482357015628
H           -4.97930337365474       -1.06191586419981        1.54777649615018
H           -5.56154633239089       -0.65693589274828       -0.08737038769821
H           -5.49611533718526       -2.35122877216914        0.44137357471100
C            1.52245116470081       -0.61128089603952       -1.65934727593467
C            1.93101613554021       -1.61244782512561       -0.56568035347780
N            2.57463809014715       -0.97151987042356        0.56821056599625
C            3.85704999863825       -0.51622690294511        0.48205757171900
C            4.33877696485821        0.29837603921890        1.66627548766144
H            1.00712620130401       -1.15962785727345       -2.45295621982395
H            2.42919710035546       -0.18691492599131       -2.09128324557892
H            1.05671219780328       -2.14285678700696       -0.18976538053817
H            2.62714108606140       -2.34094277318402       -0.97758432456585
H            1.98550613155520       -0.58104189830567        1.28218951480874
O            4.57934894779109       -0.75677588571969       -0.47635736016103
H            4.49920195345855        1.32506496663672        1.33983651115425
H            3.64049501446974        0.29444803986318        2.50119542841048
H            5.29647389639822       -0.09931693237557        1.99401546433366
