14

O           -1.97716649916250        0.23786871311286       -1.23905753122581
P           -1.49513883027458       -0.27089490521185        0.45660744414038
O           -2.53396530400846       -1.21124182800602        0.77322268496989
O           -0.05355568898395       -0.82174467182995        0.12700905966282
P            1.39084144232079       -0.05202766738953        0.27159365020469
O            1.19286638008061        1.17895654364532        1.04809865339103
O            2.36830276195921       -1.13036611146847        0.81678444953650
O            1.70094337184806        0.05293148413835       -1.25888496489586
O           -1.35804585743393        1.10633624086261        1.11047915793605
H           -2.64660284367136       -0.33465821325316       -1.65829772171489
H            2.60353832128701       -1.11595876776408        1.75505827732032
H            2.58034420491724        0.33308629947539       -1.54803461177443
H           -0.41197299191225        1.43052996298755        1.24688374098307
H           -1.36038846696587        0.59718292070100       -1.90146228853379
