9

I            0.00000000000000        0.00000000000000        0.95926493177105
C            0.00000000000000        0.00000000000000        3.08765478075398
H            0.00000000000000        1.03017192683993        3.42424375664474
H            0.89215493665180       -0.51508596368456        3.42424375664474
H           -0.89215493665180       -0.51508596368456        3.42424375664474
F            0.00000000000000        0.00000000000000       -2.43938782659624
C            0.00000000000000        0.00000000000000       -3.71568173637348
C            0.00000000000000        0.00000000000000       -4.90420065175393
H            0.00000000000000        0.00000000000000       -5.96589557614568
