4

O            0.00000000000000        0.00000000000000        0.67159895207297
C            0.00000000000000        0.00000000000000       -0.52614196260831
H            0.00000000000000        0.93896893358364       -1.10797092114104
H            0.00000000000000       -0.93896893358364       -1.10797092114104
