6

C           -0.34571345226088       -0.17289090815596        0.00000000000000
C            1.38437714343194       -0.05200736933923        0.00000000000000
N            0.98008182246964        1.06406610016513        0.00000000000000
H           -1.02725913653156        0.67277432925998        0.00000000000000
H           -0.49574318855457       -0.75597107596496        0.90048519553427
H           -0.49574318855457       -0.75597107596496       -0.90048519553427
