4

C            0.00000000000000        0.00000000000000        0.00000000000000
H           -0.53910885573722        0.93376392894718        0.00000000000000
H           -0.53910885573722       -0.93376392894718        0.00000000000000
H            1.07821771147444        0.00000000000000        0.00000000000000
