7

Sb           0.07940813715313       -1.16740063121972        0.00000000000000
H            0.92542707723690       -1.96223257508231        1.21137391401613
H            0.92542707723690       -1.96223257508231       -1.21137391401613
H           -1.13926877639304       -2.32204354935065        0.00000000000000
O            0.07940813715313        2.66198309678133        0.00000000000000
H           -0.06916885204227        1.71249216387676        0.00000000000000
H           -0.80123280034476        3.03943407007688        0.00000000000000
