12

C            1.20659714326132        0.69662918546536        0.00000000000000
H            2.14346706380617        1.23753128628759        0.00000000000000
C            1.20659714326132       -0.69662918546536        0.00000000000000
H            2.14346706380617       -1.23753128628759        0.00000000000000
C            0.00000000000000       -1.39325837093071        0.00000000000000
H            0.00000000000000       -2.47506257257517        0.00000000000000
C           -1.20659714326132       -0.69662918546536        0.00000000000000
H           -2.14346706380617       -1.23753128628759        0.00000000000000
C           -1.20659714326132        0.69662918546536        0.00000000000000
H           -2.14346706380617        1.23753128628759        0.00000000000000
C            0.00000000000000        1.39325837093071        0.00000000000000
H            0.00000000000000        2.47506257257517        0.00000000000000
