43

C           -3.45201511415176        1.18600354157875        1.17449441409857
C           -2.12702400775054        1.30970601728032        1.43537698358709
C           -1.01775598959379        0.73754000305008        0.64546330036977
C           -1.09311376805932        0.99884234027258       -0.92234663510020
C           -1.50141994467396       -0.18017299882855       -1.71111410143394
C           -2.75463020036574       -0.69156094737781       -1.69367317579144
C           -3.93610558434777       -0.25754541980312       -0.97816893947590
C           -4.20175568875445        0.49516983830794        0.14001503132577
C            0.36643798036233        1.43444828524303        0.69299089449643
C            0.39376226361950        1.49507513401850       -0.88593577261263
C            1.37526405455469        0.76448810592404        1.57443316757975
C            2.70983238417961        0.90728050217537        1.60831957529727
C            3.54868667505654        1.68547609410779        0.70463724521521
C            3.59737811571004        1.67101406860812       -0.64077232918509
C            2.88778790134760        0.83970736391895       -1.64321790175487
C            1.36030121173651        0.73556346160524       -1.75896004872275
N            2.17274715701696       -0.39341561834038       -1.40050455532076
C            2.20792006239592       -1.33323000826522       -0.40018675708256
O            3.21788708298172       -1.77700940071674        0.10734927056807
O            0.93483103874800       -1.77603942839999       -0.15588645442952
C            0.81837842719327       -2.82320534153796        0.84378647042791
C           -0.62872208417810       -3.28760158501579        0.85063816742536
H           -4.10661355464359        1.71184026702332        1.87171255954342
H           -1.84577941676146        1.96283800028058        2.26465746474270
H           -0.90572796477795       -0.33810523318333        0.80148388784961
H           -1.78429863270038        1.82934403328994       -1.10031849028307
H           -0.73799357753646       -0.72673189116868       -2.26200462501762
H           -2.93024441006551       -1.55757263424480       -2.33466686153908
H           -4.84582703632541       -0.66438305119579       -1.42581881055568
H           -5.27471884298274        0.58675192402131        0.32082911767461
H            0.24165946925634        2.47000212424206        1.04656290954898
H            0.46429544241785        2.53552845255551       -1.22870207073654
H            0.92786637694519        0.13763349925183        2.34904505684732
H            3.24098802325878        0.42362236160226        2.43006972755944
H            4.28756269920701        2.32092858584297        1.19940905986653
H            4.32813687967356        2.33226266408310       -1.10778770508782
H            3.41613229354202        0.83079524686593       -2.60023138988497
H            0.99104844998258        0.68672165691435       -2.78883557140511
H            1.12126446169242       -2.41112508163130        1.81599447615496
H            1.50804392743100       -3.63776415212090        0.59211147568940
H           -1.31106816312304       -2.46695838344402        1.10142554292064
H           -0.75022215908803       -4.08142668842417        1.59922168499724
H           -0.91317623842952       -3.68473570836537       -0.13089528836640
