18

C           -2.12449620856552       -0.93635710774101       -1.62241149420188
H           -1.78994346943408       -1.98406058895190       -1.66447481029006
H           -1.79241437627035       -0.44627518394583       -2.55030328029453
H           -3.22382605442731       -0.93798777641826       -1.62180410147706
C           -1.56347574740586       -0.22498126597981       -0.38882448091538
H           -1.94253557478899        0.81055527654063       -0.35505697563055
H           -1.94101059449557       -0.71538109107940        0.52427805136113
C           -0.03137098493319       -0.20082505646073       -0.34871846559783
H            0.34596673475527        0.28965543249698       -1.26350445621180
H            0.34712408606217       -1.23805985300761       -0.38261794185811
C            0.53255992188752        0.51106132790632        0.88496315473128
H            0.16779199958426        0.02165205242955        1.80295611323389
H            0.17003648763188        1.55168313266386        0.91879993523980
C            2.05294951790746        0.52766203934872        0.91732419599713
H            2.44243909494754        1.03317996750452        0.01232164191353
H            2.44044081898003       -0.50982077319047        0.91247296058235
O            2.46918361826313        1.21937698659408        2.10409339449697
H            3.44058073030163        1.22892248129037        2.12050655892111
