30

N            1.28120341498142       -0.03370389897091       -0.59373940067177
N            3.19933946603866        0.02007931552140       -2.05580781362615
N            4.43477120289701       -0.01116669313510        1.31413133764378
N            5.27567604946134        0.03551661875562       -0.77157525532299
N            1.41780564480733       -0.08226041043557        1.72429192185030
N           -3.57498635642394       -0.00668839166868       -1.73121405438213
N           -1.57946128736726       -0.01678309434555       -0.57874259110543
C            5.52918125236967        0.01967331633863        0.57237013089434
C            3.91079958789637        0.01382081380251       -0.92083505686616
C            2.02015201025522       -0.04150039974013        0.52758415367766
C            1.89526413753249       -0.00446689110117       -1.79564901131933
C           -4.26749689800110        0.01118131346611       -0.54849979475726
C           -3.64555208218702        0.01621101470044        0.65148635703541
C           -2.18994962872546        0.00174131055473        0.66182494049502
C            3.42098405010065       -0.01517179402155        0.38460866459137
C           -2.19340278335194       -0.02067119529271       -1.81108386812218
C           -4.36442696098291        0.03561352188223        1.95901673265325
H            5.94972628126001        0.05915172818431       -1.51852912599421
H            0.40487919427118       -0.04810030381429        1.78907093259336
H            1.99056779874996       -0.04046330209036        2.54706890519957
H            1.22563140772556       -0.00069778989323       -2.64641938313091
H            6.53444868921364        0.03183042034984        0.95903500691912
H           -4.05553098781619       -0.00933159239269       -2.61534073916126
H           -0.53763810210918       -0.02734059694245       -0.59327470093564
H           -5.34473579860042        0.02121091717854       -0.63756610869175
H           -4.09774198661311       -0.83598132710651        2.55471858263152
H           -4.08051936214284        0.91289425585763        2.53817876681447
H           -5.44221089731428        0.04482922291590        1.80988095197226
O           -1.52128591441392        0.00548551165996        1.69723619671220
O           -1.59549114151094       -0.03491160021703       -2.87222667759649
