6

P           -0.23800000102678        0.47069100205124        0.00000000000000
H            0.67831900294942        0.66010700288675       -1.05245200459906
H            0.67831900294942        0.66010700288675        1.05245200459906
N            0.03760700012245       -1.37525200601330        0.00000000000000
O            0.07469300030360       -1.93516500843979       -1.07709100466017
O            0.07469300030360       -1.93516500843979        1.07709100466017
