11

C           -0.09213999358503       -0.01985999849980        0.03338999772397
C           -0.09213999358503       -0.01985999849980        1.54764989005347
N            1.30365990759366       -0.01985999849980        2.06055985376299
H            1.82453987066116        0.79275994361400        1.71931987798104
H            1.83374986981038       -0.87592993790699        1.69975987956729
H            1.33054990574627       -0.00549999963730        3.08338978124162
H           -0.57286995924737       -0.91066993548901        1.94645986160497
H           -0.59818995740827        0.85519993926347        1.94972986137874
H           -1.11868992043734       -0.01849999877999       -0.32651997660451
H            0.40977997071165        0.86411993871757       -0.35669997478359
H            0.41225997082327       -0.90190993593970       -0.35493997477265
