39

H            6.36919329218539       -1.94300368829239       -1.21742114956583
C            6.39992496871956       -0.88168484591102       -0.95922654948959
H            6.35026658554043       -0.28873081865743       -1.87665187129288
H            7.35640601824891       -0.69398398578175       -0.46500297506153
C            5.27914344572219       -0.58621919788642        0.02456257888128
O            5.19645585202055       -1.15959430546590        1.10432775459415
N            4.38429618771561        0.36873022440749       -0.37783683450077
H            4.43245328138879        0.74763266940799       -1.31338757434944
C            3.21435776214399        0.73042672798803        0.41291042645490
H            3.25705722051985        0.09575945775547        1.30098179940958
C            3.23098045661318        2.20947294086789        0.81196354964304
H            3.18227673134797        2.84150861865156       -0.07942889186133
H            2.36983658354170        2.44900715913505        1.44381236701589
H            4.14456772913224        2.43781666717726        1.36690107859879
C            1.97175592878486        0.42186905796210       -0.43757533074592
O            1.75744059931809        1.03307996093461       -1.48188939207393
N            1.17903766528471       -0.58528440422664        0.01927719817459
H            1.38492393257550       -1.02850106461346        0.90419891472009
C           -0.04138012804141       -0.98797319128717       -0.65763409777150
H           -0.10501956892820       -0.39644113040480       -1.57214257309202
H            0.00287230193269       -2.05133550650288       -0.92150278673306
C           -1.23494635576821       -0.79118397185746        0.28297555875056
O           -1.32249433419986       -1.44484013605326        1.31949564834472
N           -2.12066761409933        0.17336419004410       -0.08300122274676
H           -2.02167667326256        0.64241588460012       -0.97229369804529
C           -3.31444820992673        0.48770049532183        0.69893637802424
H           -3.28671044977351       -0.19044943037568        1.55545817391416
C           -3.30840489346346        1.94551039862374        1.17097645270923
H           -3.34613612661467        2.61803515469402        0.31078043021602
H           -4.18342035917393        2.14839486902656        1.79731648716143
H           -2.40659850057026        2.15123723752114        1.75338554980580
C           -4.53543176513023        0.22114693687898       -0.19680788192241
O           -4.73084411414148        0.90079061554060       -1.19942595356523
N           -5.33136221156045       -0.81245792075208        0.18924157704166
H           -5.05741922042782       -1.35352134188955        0.99610892153914
C           -6.49609494786746       -1.23068669353720       -0.57151923812078
H           -6.35585978863071       -2.22980888452624       -1.00018930593957
H           -7.39220983241991       -1.23986667616748        0.05770172596937
H           -6.63178599624703       -0.51340992028401       -1.38129479292894
