16

H           -1.96835649881260        1.06706630429334        1.34307138300120
C           -1.11416525522446        1.01457628932486        0.68421719511696
C            0.22922212786685        0.72932620798062        1.09945031352822
C           -1.11416525522446        1.01457628932486       -0.68421719511696
H            1.98243762782810        0.70630020141433        0.00000000000000
N            1.03477835758584        1.05782230165724        0.00000000000000
C            0.22922212786685       -1.33411338044666        0.70659720149902
H            0.61593223814427        0.86963624799257        2.10018859890692
C            0.22922212786685       -1.33411338044666       -0.70659720149902
H           -1.96835649881260        1.06706630429334       -1.34307138300120
C            0.22922212786685        0.72932620798062       -1.09945031352822
H            0.61593223814427        0.86963624799257       -2.10018859890692
H           -0.65530612437244       -1.66353047438593       -1.23801635304285
H           -0.65530612437244       -1.66353047438593        1.23801635304285
H            1.15484339182457       -1.56502244629458        1.22577534955210
H            1.15484339182457       -1.56502244629458       -1.22577534955210
