12

N            0.00000000000000        1.40389990032702        0.00000000000000
B            1.25128591132482        0.72242994855892        0.00000000000000
N            1.21581291387474       -0.70194995016351        0.00000000000000
B            0.00000000000000       -1.44486089726278        0.00000000000000
N           -1.21581291387474       -0.70194995016351        0.00000000000000
B           -1.25128591132482        0.72242994855892        0.00000000000000
H            0.00000000000000        2.40904382899103        0.00000000000000
H            2.28744883752307        1.32065890632764        0.00000000000000
H            2.08629285198239       -1.20452191423092        0.00000000000000
H            0.00000000000000       -2.64131781265528        0.00000000000000
H           -2.08629285198239       -1.20452191423092        0.00000000000000
H           -2.28744883752307        1.32065890632764        0.00000000000000
