11

C            0.63003995525496        1.18250991605931        2.07402985275828
C           -0.01597999869217       -0.08947999384512        1.52345989161696
N           -0.01655999861159       -0.10765999228638        0.00774999922433
H            0.94184993307297       -0.10810999241545       -0.37222997334668
H           -0.49954996478107       -0.94467993310859       -0.35128997496044
H           -0.49620996491666        0.72218994870175       -0.37269997372845
H           -1.06115992464399       -0.17775998734603        1.84638986863814
H            0.51994996322409       -0.99171992945614        1.83694986949351
H            0.62587995561397        1.12660991995738        3.16982977477921
H            1.65754988206513        1.28849990867807        1.71329987812403
H            0.05268999602786        2.06960985300742        1.78000987348133
