26

C            0.00000000000000        2.41233282887256       -1.62084480790927
Al           0.00000000000000        1.30756590693601        0.00944307606587
C            0.00000000000000        2.05852485358498        1.83323394665684
C           -1.69230787960998        0.00000000000000       -0.22299590716945
Al           0.00000000000000       -1.30756590693601        0.00944307606587
C            0.00000000000000       -2.41233282887256       -1.62084480790927
C            1.69230787960998        0.00000000000000       -0.22299590716945
C            0.00000000000000       -2.05852485358498        1.83323394665684
H            0.87649893781972       -2.68847980922126        2.00708593437066
H            0.00000000000000       -1.28808790876451        2.60730889166709
H           -0.87649893781972       -2.68847980922126        2.00708593437066
H            0.87716993769821       -3.06285178237801       -1.66447380468601
H           -0.87716993769821       -3.06285178237801       -1.66447380468601
H            0.00000000000000       -1.80746287173547       -2.53042774355569
H            0.87649893781972        2.68847980922126        2.00708593437066
H           -0.87649893781972        2.68847980922126        2.00708593437066
H            0.00000000000000        1.28808790876451        2.60730889166709
H            0.87716993769821        3.06285178237801       -1.66447380468601
H            0.00000000000000        1.80746287173547       -2.53042774355569
H           -0.87716993769821        3.06285178237801       -1.66447380468601
H            1.98499285908609        0.00000000000000       -1.27297983243191
H            2.19790284416703       -0.84782493988212        0.25601905865361
H            2.19790284416703        0.84782493988212        0.25601905865361
H           -1.98499285908609        0.00000000000000       -1.27297983243191
H           -2.19790284416703        0.84782493988212        0.25601905865361
H           -2.19790284416703       -0.84782493988212        0.25601905865361
