39

C            1.25300972670842        0.59636968062482        0.66966558350849
C            2.13898373559032       -0.71323270978389        0.88571086884220
C            2.69438631483317       -1.03677477550225       -0.53151102433818
C            2.04754866621224        0.05720128802301       -1.40905557244416
C            0.49813352195235       -0.14716771575110       -1.54582518345104
C            0.04573966793897        0.10790709879285       -0.09723915893646
C            2.09336749943091        1.25999930821470       -0.47047224208701
C            1.09393853171042        1.52030165126130        1.87920471119208
C           -0.01988067807880        0.93487347967845       -2.55637198164952
C            0.11230615584761       -1.55159448343650       -2.05372503139407
C           -2.98562343569980       -0.15287768035955        2.17527004048922
C           -1.62685305377059       -0.30162001930095        1.78475462643028
C           -1.25776923157133       -0.10419761657287        0.38236108440675
C           -2.35648883146087       -0.05386391237757       -0.55417535071457
C           -3.65993748157070        0.02445992998870       -0.14286763168824
C           -3.98030279898853        0.01144083389189        1.24265119146508
H            2.92868391305286       -0.44854624887739        1.59837327696788
H            1.58297563232155       -1.56607958514309        1.29690316169248
H            2.45531834562914       -2.05201761728351       -0.85762925497005
H            3.78340715055360       -0.92750128871192       -0.55363864127137
H            2.51742587311542        0.17656651217629       -2.38853048162382
H            3.09616094927987        1.50098884917565       -0.10099853555440
H            1.63051618388703        2.17004550197348       -0.86185234757255
H            0.87464392168117        1.01575902410179        2.82298255411117
H            2.03742423130155        2.06047364591155        2.01876145526367
H            0.30289674783419        2.25835167902467        1.69999096012268
H           -0.12805129268096        1.92315960384238       -2.10034529448136
H            0.70152034094793        1.01083910349943       -3.37752790639569
H           -0.98088942604716        0.65206738971434       -2.99528607307415
H            0.38223312045693       -2.33232144138432       -1.33496964894259
H           -0.95966224986858       -1.63186242392379       -2.25505141340208
H            0.64989195418819       -1.74491038132918       -2.99014866296774
H           -3.23857895025258       -0.22934767860838        3.23063460543766
N           -0.75418948586399       -0.73429322910792        2.70904570740580
H           -2.14354112554518        0.02454398316383       -1.60744774508143
Cl          -4.95459667355594        0.17846372816983       -1.30818057740596
H           -5.01650112397296        0.10504581245760        1.55722239950172
H            0.20360849490668       -0.94851130325199        2.48347856700633
H           -1.06125484045249       -0.91213799298033        3.65583896560300
