14

S            0.98779870837497        1.69086160843120       -0.05066348856902
N           -1.61020626945467        1.29841558247225       -0.15110636488544
N           -0.45937754311059       -0.56434099857542        0.46247752253908
C           -0.39187803785005        0.81146297465323        0.08312164861795
H           -2.39944663213016        0.68603673971196       -0.07469157201748
H           -1.71732706988466        2.24968277784494       -0.44737711971373
H           -0.09355347365504       -0.62431146304552        1.40484970635674
C            0.35853015158382       -1.43528096130282       -0.38652433517444
C            0.17576382779221       -2.87823114135609        0.01789791276726
H            0.02638680327436       -1.29125300173056       -1.41240020862086
H            1.41001053124378       -1.14570964847618       -0.34147789333714
H           -0.86056658738841       -3.18390850402230       -0.09862125946395
H            0.79399441582440       -3.52647690143018       -0.59574031034486
H            0.46967116090201       -3.03394711105402        1.05528575950606
