59

H           -3.09097027904981       -3.06401933188048        4.28307769436126
O           -2.48748422192126       -2.58162246594145        3.69588003564081
C           -3.14041267537524       -2.41723857774052        2.42339312620414
H           -4.13930060437561       -1.98344700851794        2.55371791707798
H           -3.23364956865012       -3.38141930914992        1.90511836287211
C           -2.29730513495321       -1.49145864317387        1.56972978685436
H           -2.71979240525030       -1.46773324486568        0.56030915856986
O           -2.33203883268053       -0.13161933973187        2.10156394890886
C           -1.00899972641736        0.31030102857956        2.41367532701581
H           -0.62265015412331        0.98457458092087        1.64543488143717
N           -1.07972242176394        1.10097567266329        3.64266603987187
C           -1.48389149317020        0.49976081554838        4.81329795641180
H           -1.73173507531577       -0.55340730975324        4.71888826303053
C           -1.59050228527134        1.17081616768556        5.98406297319135
H           -1.90327636311223        0.66761650366494        6.88903580905321
C           -1.30600690575809        2.58390256746021        6.02740737052641
O           -1.36605780124052        3.31717211533097        7.02123729991749
N           -0.95561513026575        3.12671262900076        4.78205625888177
H           -0.76983314343392        4.12611245810527        4.75462396098176
C           -0.83069253914297        2.47420837511176        3.57240634442174
O           -0.54159115991018        3.05820643367788        2.53124241840829
C           -0.81801304041147       -1.87522671599218        1.49550649218081
H           -0.65521755169388       -2.93410854068088        1.70611177715561
C           -0.14210788814686       -0.95989128115639        2.51872441926978
H           -0.23144638159332       -1.39826734962842        3.51500194883939
O            1.23422361413493       -0.74417819623416        2.25202993828978
H            1.33808170681988       -0.93611978251712        1.29697940610618
O           -0.27669157870735       -1.53101484024714        0.20639078368666
P            0.26394728302464       -2.74453925424687       -0.78072184639071
O           -0.76300394430720       -3.83720487658129       -0.81073644388240
O            1.70005998086073       -3.02696443430157       -0.45784256930894
O            0.27476328209122       -1.88412571557783       -2.16274114801018
C           -0.97536622885815       -1.42023264844035       -2.72338930818355
H           -1.55002588818741       -0.88576288647796       -1.95964666251849
H           -1.55543888791617       -2.27582998761814       -3.08627678275754
C           -0.64818205230231       -0.49063721441795       -3.87510732628373
H           -1.56768198690209       -0.26881892999106       -4.42576758728267
O           -0.13045678923197        0.77327939597432       -3.35090926387987
C            1.18115401759742        1.01934987832710       -3.84242992864634
H            1.18805501760483        1.77251952521753       -4.63389017281289
N            1.97289786158990        1.58491713808791       -2.73821530737728
C            1.94333556350228        0.97549858161253       -1.50591319456835
H            1.30380420906184        0.10067924379339       -1.45683919818773
C            2.63888921430657        1.44105974867144       -0.44114177040013
H            2.58844891782226        0.95413488320459        0.52326286117898
C            3.45969275604284        2.61810286514249       -0.57963056070172
O            4.14681920737493        3.14581552731479        0.30286117673719
N            3.43239315779531        3.17357422542272       -1.86704766908755
H            3.99709791797019        4.00583686629397       -2.01754975840863
C            2.73324070771984        2.73054775714645       -2.97176379054102
O            2.78244660416617        3.30339481625001       -4.05831071353094
C            0.42332787160622       -1.03003097614876       -4.83169665869987
H            0.50399906570881       -2.11750379891707       -4.78695516155992
C            1.71026598042263       -0.33790832516795       -4.35516969256034
H            2.13962124964873       -0.89766268545254       -3.52087485191687
O            2.69298831029094       -0.22606583315475       -5.36752132070129
H            2.18691524629491       -0.15051913824483       -6.20338916124208
O            0.18372008871072       -0.60012000682077       -6.18547226230161
H           -0.07502869272881       -1.37437115143776       -6.70874362534032
