4

N           -0.55860877571835       -0.27667768091911        0.00000000000000
N            0.55860877571835        0.27667768091911        0.00000000000000
H            1.26459278619171       -0.48882421190843        0.00000000000000
H           -1.26459278619171        0.48882421190843        0.00000000000000
