10

N            0.26705170381834        0.69636733291883       -0.56173705531358
N            1.35510692337530        0.81253980070510        0.35870938088625
H            1.84787294453930       -0.08681105714882        0.41533585157727
H            0.95114417941215        1.00024411366324        1.27451799831028
H            0.69417438253629        0.79066299569098       -1.48682617546021
N           -0.26705170381834       -0.69636733291883       -0.56173705531358
N           -1.35510692337530       -0.81253980070510        0.35870938088625
H           -0.69417438253629       -0.79066299569098       -1.48682617546021
H           -0.95114417941215       -1.00024411366324        1.27451799831028
H           -1.84787294453930        0.08681105714882        0.41533585157727
