6

C            0.66634625131397        0.00000000000000        0.00000000000000
H            1.22581877171389       -0.92363156072803        0.00000000000000
H            1.22581877171389        0.92363156072803        0.00000000000000
C           -0.66634625131397        0.00000000000000        0.00000000000000
H           -1.22581877171389       -0.92363156072803        0.00000000000000
H           -1.22581877171389        0.92363156072803        0.00000000000000
