35

N            2.47541602450406        0.16740006923987        0.42404708312597
H            2.79109343769540        1.05977558584559        0.77953039717658
C            1.25014968293885        0.23051028662085       -0.33748852775355
H            1.48562064331960        0.06524736734923       -1.39516374582836
C            0.23493030943656       -0.83627627721089        0.09137767357658
C            0.74023897661836        1.66681722456078       -0.19560250839968
H            0.78780734948396       -1.66843150986910        0.52490024492543
H           -0.41390664187907       -0.42509498410733        0.86727280400331
C           -0.57786334767776       -1.33862074047103       -1.09466826539390
O            1.49069531339734        2.56740682036968        0.18472818232135
H            0.08214719830350       -1.92724074306075       -1.73545118105023
H           -0.94238110568541       -0.50904551195938       -1.69578386113944
C           -1.76785889884638       -2.21339367872534       -0.70300036964129
H           -1.42097891698235       -3.20403019705816       -0.41008390493903
H           -2.42190046514896       -2.33563286908601       -1.56610689923362
N           -2.57359086522508       -1.73055469405744        0.40868724787309
H           -2.29997157884965       -2.03834033924799        1.32672522866001
C           -3.19722257957795       -0.51489683150141        0.37617040245126
N           -3.09834237503788        0.26354416072950       -0.65019433438209
N           -3.88044339954978       -0.23897974964650        1.55948428026377
H           -3.74329066392173        1.04265258447390       -0.54485100790145
H           -4.46874505484622        0.57635426336177        1.50670641123723
H           -4.36844677295131       -1.03162631069990        1.94709114405370
N           -0.54330442070156        1.89125135419355       -0.53301117824564
C           -1.08505382886265        3.22896018047426       -0.41652939731483
H           -1.20080288991293        1.13437919254217       -0.68914648693938
H           -0.42854417691577        3.93896121941815       -0.91249030717975
H           -1.18362711861531        3.53510139375146        0.62513251453214
H           -2.06109115989226        3.24657799283425       -0.89273172727354
C            3.35631571199814       -0.84250800271401        0.20589417944434
C            4.68973892644867       -0.70195383957645        0.89984682920753
O            3.08226951869395       -1.81201131445860       -0.49674630820341
H            4.72720733489933        0.14592083627491        1.57890966384904
H            4.89525044609284       -1.61720895770934        1.44882513402276
H            5.46325236920667       -0.59082898444848        0.14264559284587
