19

C            2.78200080159694       -1.02811624577304       -0.24750862159985
H            3.10504548650716       -0.58398411203682       -1.19166439464455
H            3.68664182404260       -1.23620541977619        0.32800082653577
N            2.02769742647201       -2.22586757736360       -0.47495453449105
H            1.08064765431489       -2.22205933254616       -0.12999069653798
C            1.90122524422485       -0.04790281772421        0.51069901712367
O            0.74226845894277       -0.31385384885534        0.80914683696482
C            2.55199310183299       -3.25159009059827       -1.18884590024616
O            3.69129871358169       -3.21060197597592       -1.64081165676154
N            2.50709512991524        1.12443722019454        0.81115858231392
H            3.46887303583430        1.24149320695345        0.54478772754034
C            1.83695288383027        2.18211993398679        1.53778155137133
H            2.27288033287607        2.32244987470460        2.52533803621137
H            1.88773707125818        3.11899712598802        0.98763984661090
H            0.79832656443473        1.88865190035721        1.64929956214177
C            1.64602283113859       -4.44423432399328       -1.37630338609601
H            1.57077756082790       -4.65801885908279       -2.43938357226001
H            0.65087447820399       -4.29378784243047       -0.96549026122812
H            2.10444657648322       -5.30653090763514       -0.89769796666106
