19

C           -1.93244185538251       -0.91949712891892       -1.55186814281972
H           -1.59223467243470       -1.96641255037840       -1.53163045133536
H           -1.62191558337160       -0.47994976542633       -2.51361754238684
H           -3.03113555631074       -0.92929105104281       -1.55502186632619
C           -1.39283423588960       -0.13462408987052       -0.35266522025063
H           -1.73190111460394        0.91368411357239       -0.40320164076986
H           -1.79133710637897       -0.55737726086797        0.58071315755757
C            0.13518809347306       -0.14185983198249       -0.25756871967381
H            0.48828128645309       -1.19211085732545       -0.19017934518147
C            0.65313539215720        0.59850156519140        0.98287437885764
H            0.30096089669497        1.64732959078590        0.91395991082796
C            2.17431617446627        0.58052325555311        1.08366162295538
H            2.62682794241981        1.04855159409219        0.20028478477186
H            2.50983160600921        1.13573212197588        1.97396459679924
H            2.54012880646279       -0.45407442224144        1.16205084812935
O            0.04377588291547       -0.04921433922085        2.11555684670992
H            0.45223170307037        0.32265638582463        2.91519875550954
O            0.74864283566902        0.50856530464776       -1.38517242490807
H            0.42047950458074        0.06886736563192       -2.18733954846650
