34

C            1.58403644705484        1.08983031503839       -2.53336825127042
H            2.67011538750002        1.17701989826796       -2.56372738500608
H            1.33597030020663        0.02908344241166       -2.56702859412568
H            1.18577865525956        1.55392317309195       -3.43447062573597
C            1.02702222033072        1.73636117629334       -1.27192354571837
H           -0.06354238677725        1.66791505909088       -1.27102384770868
H            1.26699516122336        2.80218037990394       -1.26668028059032
C            1.56813838376223        1.09736842028042        0.00000000000000
H            1.32511030169927        0.03062989662656        0.00000000000000
H            2.66033133722410        1.16269558339845        0.00000000000000
C            1.02702222033072        1.73636117629334        1.27192354571837
H           -0.06354238677725        1.66791505909088        1.27102384770868
H            1.26699516122336        2.80218037990394        1.26668028059032
C            1.58403644705484        1.08983031503839        2.53336825127042
H            2.67011538750002        1.17701989826796        2.56372738500608
H            1.18577865525956        1.55392317309195        3.43447062573597
H            1.33597030020663        0.02908344241166        2.56702859412568
C           -1.58403644705484       -1.08983031503839        2.53336825127042
H           -1.33597030020663       -0.02908344241166        2.56702859412568
H           -2.67011538750002       -1.17701989826796        2.56372738500608
H           -1.18577865525956       -1.55392317309195        3.43447062573597
C           -1.02702222033072       -1.73636117629334        1.27192354571837
H           -1.26699516122336       -2.80218037990394        1.26668028059032
H            0.06354238677725       -1.66791505909088        1.27102384770868
C           -1.56813838376223       -1.09736842028042        0.00000000000000
H           -2.66033133722410       -1.16269558339845        0.00000000000000
H           -1.32511030169927       -0.03062989662656        0.00000000000000
C           -1.02702222033072       -1.73636117629334       -1.27192354571837
H           -1.26699516122336       -2.80218037990394       -1.26668028059032
H            0.06354238677725       -1.66791505909088       -1.27102384770868
C           -1.58403644705484       -1.08983031503839       -2.53336825127042
H           -1.33597030020663       -0.02908344241166       -2.56702859412568
H           -1.18577865525956       -1.55392317309195       -3.43447062573597
H           -2.67011538750002       -1.17701989826796       -2.56372738500608
