10

C            0.21113454952491       -1.06476771420442        0.00000000000000
C           -0.61075333003931        0.22754824464387        0.00000000000000
N            0.15511215181758        1.47613614149490        0.00000000000000
H            0.75559874995727        1.53125777465998       -0.81589336332593
H            0.75559874995727        1.53125777465998        0.81589336332593
H           -0.43552574967471       -1.94752738566016        0.00000000000000
H            0.85338955851413       -1.12075655208137       -0.88379355445720
H            0.85338955851413       -1.12075655208137        0.88379355445720
H           -1.26897211928563        0.24380413428429        0.87342742011734
H           -1.26897211928563        0.24380413428429       -0.87342742011734
