4

H            0.98497341797286        0.91525432043619        0.00000000000000
N            0.00000000000000        0.62159271901685        0.00000000000000
N            0.00000000000000       -0.62159271901685        0.00000000000000
H           -0.98497341797286       -0.91525432043619        0.00000000000000
