11

C           -0.26923314441105        1.53238600530218        1.64806296065822
C           -0.33500596637784       -1.30932907420808       -1.02192020485610
C            0.78437837500195       -1.24539465770137       -1.72590495637578
H           -0.22708219625359        2.58410644652030        1.37549715601147
H            0.37520320567519        1.35513648839957        2.50579228047168
H            0.06557480047348        0.92537801985898        0.80988080941019
H           -1.29221522801574        1.26606122807618        1.90326512042312
H           -1.22769873378111       -0.77250147369056       -1.31852408600511
H           -0.40793326696518       -1.90000478934973       -0.11708636450424
H            0.85705301985823       -0.65403781492475       -2.63025581317680
H            1.67695913479562       -1.78180037828271       -1.42880690205664
