12

C           -1.20756533418612        0.69718817075641        0.00000000000000
H           -2.14397486004475        1.23782446258263        0.00000000000000
C           -1.20756533418612       -0.69718817075641        0.00000000000000
H           -2.14397486004475       -1.23782446258263        0.00000000000000
C            0.00000000000000       -1.39437634151283        0.00000000000000
H            0.00000000000000       -2.47564892516526        0.00000000000000
C            1.20756533418612       -0.69718817075641        0.00000000000000
H            2.14397486004475       -1.23782446258263        0.00000000000000
C            1.20756533418612        0.69718817075641        0.00000000000000
H            2.14397486004475        1.23782446258263        0.00000000000000
C            0.00000000000000        1.39437634151283        0.00000000000000
H            0.00000000000000        2.47564892516526        0.00000000000000
