7

N           -1.72265088611920        0.00797304429658       -0.15141120793759
H           -0.70781582133689        0.00663644743892       -0.15930212853488
H           -2.01074763818656        0.97542699679311       -0.11314189475099
H           -2.00424869236580       -0.40380184686988        0.72731743610522
C            1.69840830313157       -0.11632008566540       -0.06938394315014
H            2.31694120648272       -0.20747137148181       -0.98017469318314
H            2.43011352839416       -0.26244318451152        0.74609643145151
