9

C           -1.09490800478886       -0.10987800048058        0.01386200006063
H           -2.17781500952524       -0.24073400105291        0.03406100014898
O           -0.38375600167845       -1.17640900514533        0.00202700000887
H           -1.17499600513915        1.86566400815996        0.00509200002227
H            0.72275500316115        0.87976300384787       -0.01917600008387
H            0.73713200322404       -0.77302100338100       -0.02356900010308
O            1.64813600720854        0.09048500039576       -0.09940100043476
N           -0.55271100241743        1.07319300469388        0.00323600001415
H            2.21630500969358        0.10263400044890        0.67676100295999
