17

C           -2.03831019083137       -0.70494044818730       -1.55824505088798
H           -1.69185552723217       -1.74636823121871       -1.63520523517353
H           -1.72714715871840       -0.18285114363362       -2.47554081074216
H           -3.13702210027117       -0.71946570306015       -1.53908535762435
C           -1.46894572860481       -0.02261924221943       -0.31223113129266
H           -1.86017700273904        1.00629741748465       -0.24150540132645
H           -1.82251148884650       -0.54637234035623        0.59138836094619
C            0.06596929083092        0.01624997223605       -0.30375133467492
H            0.41993418922822        0.54573555994309       -1.20500094662178
H            0.46361230941962       -1.00838808328584       -0.36560556734765
C            0.62266082903533        0.69737189685279        0.94331905256087
H            0.40222393314192        0.15002094015913        1.87249113195553
H            0.25312239984085        1.72886891025811        1.05116614084776
S            2.44230284768534        0.90185048582166        0.93413123630866
O            2.78783537930081        1.59027178568663        2.19872019037204
O            2.67375965272255       -0.76912512676042        1.12372102105695
H            3.61454836603787       -0.93653664972042        0.92123370164348
