68

C           -6.11289800694966       -3.57070547903356        0.00000000000000
C           -5.34834471603826       -2.23517355477381        0.00000000000000
C           -3.81940212728689       -2.41214058131304        0.00000000000000
C           -3.05573281550851       -1.07603092172392        0.00000000000000
C           -1.52655294335537       -1.25019199251959        0.00000000000000
C           -0.76460165741944        0.08695406075130        0.00000000000000
C            0.76460165741944       -0.08695406075130        0.00000000000000
C            1.52655294335537        1.25019199251959        0.00000000000000
C            3.05573281550851        1.07603092172392        0.00000000000000
C            3.81940212728689        2.41214058131304        0.00000000000000
C            5.34834471603826        2.23517355477381        0.00000000000000
C            6.11289800694966        3.57070547903356        0.00000000000000
C            7.64197753453279        3.39507902384530        0.00000000000000
C            8.40471692918725        4.73177685253587        0.00000000000000
C            9.93383618412792        4.55786116337698        0.00000000000000
C           10.69574551275828        5.89582776819126        0.00000000000000
C           12.22503385564803        5.70859731802806        0.00000000000000
C           -7.64197753453279       -3.39507902384530        0.00000000000000
C           -8.40471692918725       -4.73177685253587        0.00000000000000
C           -9.93383618412792       -4.55786116337698        0.00000000000000
C          -10.69574551275828       -5.89582776819126        0.00000000000000
C          -12.22503385564803       -5.70859731802806        0.00000000000000
H           -5.81485512239816       -4.16002738072183        0.88358824146786
H           -5.81485512239816       -4.16002738072183       -0.88358824146786
H           -5.64602591045129       -1.64565889283322       -0.88360816911791
H           -5.64602591045129       -1.64565889283322        0.88360816911791
H           -3.52160149176991       -3.00155948020736       -0.88361387803368
H           -3.52160149176991       -3.00155948020736        0.88361387803368
H           -3.35446506117391       -0.48703270733341       -0.88356019333484
H           -3.35446506117391       -0.48703270733341        0.88356019333484
H           -1.22746840851018       -1.83895451648782       -0.88360824554595
H           -1.22746840851018       -1.83895451648782        0.88360824554595
H           -1.06353725808990        0.67582667163443       -0.88359108910967
H           -1.06353725808990        0.67582667163443        0.88359108910967
H            1.06353725808990       -0.67582667163443       -0.88359108910967
H            1.06353725808990       -0.67582667163443        0.88359108910967
H            1.22746840851018        1.83895451648782       -0.88360824554595
H            1.22746840851018        1.83895451648782        0.88360824554595
H            3.35446506117391        0.48703270733341       -0.88356019333484
H            3.35446506117391        0.48703270733341        0.88356019333484
H            3.52160149176991        3.00155948020736       -0.88361387803368
H            3.52160149176991        3.00155948020736        0.88361387803368
H            5.64602591045129        1.64565889283322       -0.88360816911791
H            5.64602591045129        1.64565889283322        0.88360816911791
H            5.81485512239816        4.16002738072183       -0.88358824146786
H            5.81485512239816        4.16002738072183        0.88358824146786
H            7.94046550610626        2.80613603081922       -0.88364104688526
H            7.94046550610626        2.80613603081922        0.88364104688526
H            8.10603327405811        5.32064366433982       -0.88368673059515
H            8.10603327405811        5.32064366433982        0.88368673059515
H           10.23347451892199        3.96922228201890       -0.88374214217665
H           10.23347451892199        3.96922228201890        0.88374214217665
H           10.39296088101348        6.48135421623334       -0.88347398965809
H           10.39296088101348        6.48135421623334        0.88347398965809
H           12.54705529578896        5.14478172405591       -0.88919954098178
H           12.75044193802494        6.67506781330286        0.00000000000000
H           12.54705529578896        5.14478172405591        0.88919954098178
H           -7.94046550610626       -2.80613603081922       -0.88364104688526
H           -7.94046550610626       -2.80613603081922        0.88364104688526
H           -8.10603327405811       -5.32064366433982       -0.88368673059515
H           -8.10603327405811       -5.32064366433982        0.88368673059515
H          -10.23347451892199       -3.96922228201890       -0.88374214217665
H          -10.23347451892199       -3.96922228201890        0.88374214217665
H          -10.39296088101348       -6.48135421623334       -0.88347398965809
H          -10.39296088101348       -6.48135421623334        0.88347398965809
H          -12.54705529578896       -5.14478172405591       -0.88919954098178
H          -12.75044193802494       -6.67506781330286        0.00000000000000
H          -12.54705529578896       -5.14478172405591        0.88919954098178
