14

C           -0.04352699681099       -0.01103899910586        0.43138796959995
C            1.06196092484199        1.05245392551234        0.05060199663547
C            1.02946292674593       -1.04166892617594        0.09605599331832
C            1.95639786095595       -0.13731299028959       -0.22100298427312
C           -1.26835290985958       -0.01635599868008       -0.41644297062256
C           -2.51364582153622       -0.01375799892972        0.04206499712543
H           -0.31494597775090        0.02090999827181        1.48867189448685
H            1.36020190360456        1.70462487872258        0.87308993800961
H            0.80926794262696        1.66922888131928       -0.81299294219610
H            1.00942092832798       -2.12290684916354        0.11283299215797
H            2.98422578834417       -0.21068598502863       -0.54905896123355
H           -1.09324892220292       -0.03000499768790       -1.48898189443465
H           -3.36528276089601       -0.01991899858376       -0.62449995564147
H           -2.72341880653933       -0.00515899943012        1.10495392152098
