17

C           -0.58912495810662       -0.22431898383431       -0.11778899180150
C           -1.93540486282614       -0.93274493379512        0.13081899052946
C           -1.29317290805345        1.06359892463449       -0.03156999801333
C           -2.48938482339332        0.48718196515641        0.18834998646774
H           -2.29298383694109       -1.55058189005486       -0.69504795054035
C            0.65410795347303       -0.64445595429582       -0.32069097744083
H            0.84160794004975       -1.71451187809067       -0.31942497705652
C            1.84120586928905        0.24569598258227       -0.52983396215740
H            1.51790289218557        1.28747790873065       -0.56879595936998
H            2.29353983708646        0.02495399803475       -1.50226589346125
H           -0.96890193142022        2.09123885176417       -0.11421299213046
H           -3.48494075263035        0.87330093789727        0.34873897514243
H           -1.99304885873686       -1.50478889292551        1.05877392492622
C            2.90541179352261        0.07365999452855        0.56012696030892
H            3.25046976912263       -0.96061693191896        0.60935595692804
H            3.77261673219019        0.70682994990519        0.36747297396837
H            2.50191682244411        0.33499097607446        1.53893489067582
