4

N           -1.14955049818995       -0.03994432739038        1.59773579655964
H           -0.79938967309531       -0.99197446951553        1.58883816701378
H           -0.71314774952941        0.39769790193854        2.40214477953082
H           -0.70067248039234        0.40809856092501        0.78463412432202
