4

N           -1.10641331130454       -0.09909069285773        1.63870914343315
H           -0.62338267574970       -0.98780491981341        1.57364179827767
H           -0.63052703536039        0.41097723097626        2.37416555158284
H           -0.86782414850162        0.40216015119791        0.77586175472622
