6

Cl          -0.00027463988559        0.01924291128376        2.32253718346702
C            0.00021336035316        0.00020290726877       -0.00005238589799
H            0.76097998746891       -0.75101621835195        0.00641362303357
H           -1.03075054738840       -0.28300713043312        0.00218361324757
H            0.27042847954276        1.03464465389628       -0.00866041316082
Cl          -0.00059664009085       -0.02006712366372       -2.32242162068935
