13

F            0.00000000000000        0.00000000000000        3.35156176203688
I            0.00000000000000        0.00000000000000        1.37073690269286
C            0.00000000000000        1.14835791849778       -1.73069387695368
C            0.00000000000000        1.19345791520609       -3.11247977914332
C            0.00000000000000        0.00000000000000       -3.81534572923796
C            0.00000000000000       -1.19345791520609       -3.11247977914332
C            0.00000000000000       -1.14835791849778       -1.73069387695368
N            0.00000000000000        0.00000000000000       -1.05725392477245
H            0.00000000000000        2.05128285442875       -1.13194391987868
H            0.00000000000000        2.14744684752405       -3.62035474287267
H            0.00000000000000        0.00000000000000       -4.89757465244278
H            0.00000000000000       -2.14744684752405       -3.62035474287267
H            0.00000000000000       -2.05128285442875       -1.13194391987868
