33

N           -0.92971966143547        2.63787484322814        0.03481930049578
C            0.35316724763286        2.17477587581784       -0.17498668452739
C            0.34233524836413        0.80524697304109       -0.32155367399293
C           -1.03143365400601        0.40044900203688       -0.19440268323851
C           -1.66883260896936       -0.84704790943938       -0.24926667948073
C           -3.04779351078966       -0.90429590563869       -0.08401969107773
C           -3.80162345759538        0.27050101126688        0.13626629352949
C           -3.18365550140038        1.51556392241893        0.19367828915494
C           -1.79979959925199        1.57030991902242        0.02737230126311
H           -1.18289664341538        3.59936877471779        0.16676629098895
H            1.17725918916370        2.86836082652770       -0.20426768259324
H           -1.12078664743722       -1.76488084427716       -0.41604366737007
H           -4.87170738121482        0.21897201469360        0.26378428402581
H           -3.77228445959051        2.40791985909663        0.36319127721523
O           -3.60135547163206       -2.15764681672678       -0.15029568650810
C           -5.00561737203470       -2.25130480964655        0.01578830201857
H           -5.53870933381426       -1.69898584903016       -0.76122064275375
H           -5.31806834961675       -1.88812083549376        0.99734223241817
H           -5.24460135501303       -3.30724973468207       -0.06780669195535
C            1.50432216614622       -0.10992296215117       -0.56199165708493
C            2.84191107073296        0.62438798583274       -0.66461564977538
N            3.96811499111717       -0.26137395140893       -0.89438663369889
C            4.70527393857036       -0.91544990447766        0.05749229868413
C            4.50285795298577       -0.47333893606005        1.49366419716233
H            1.34431917732119       -0.67772992159378       -1.48378359153780
H            1.56742116152257       -0.84983090954267        0.24138928591015
H            3.02468405804580        1.19525094525586        0.24429128579709
H            2.80349607341975        1.34236493514994       -1.48558759157547
H            4.09050498244274       -0.63826692426925       -1.82143256759149
O            5.50831288174251       -1.78478884285423       -0.24750467917993
H            5.12683490850192       -1.09903689175588        2.12306215250832
H            3.46264402706842       -0.57114492899838        1.80301617488208
H            4.79542593243890        0.56906998994009        1.62124218788754
