16

C            1.07775992323177        1.08689992281953        1.96348986059832
C            0.13838999027043       -0.02709999789535        1.50912989286890
N            0.05606999586847       -0.03574999737783       -0.00616999937086
H            1.01447992808220       -0.03618999764515       -0.38614997247105
H           -0.42691996977183       -0.87276993820005       -0.36519997422305
H           -0.42356997004567        0.79409994361030       -0.38661997232363
H           -0.87526993803518        0.09068999352190        1.91100986431319
H            0.52928996216364       -1.01123992842287        1.78216987325422
H            1.13485991967791        1.08203992333053        3.05883978301936
H            2.08531985172799        0.93492993348698        1.55681988922649
H            0.71661994897382        2.07852985246152        1.65255988278579
O            3.97297971816312       -2.02258985638339        0.29356997914787
Cl           2.85191979768099       -1.84893986884040       -0.60734995671954
O            3.11690977875593       -2.40490982941393       -1.93069986304646
O            1.60868988600694       -2.45076982619913       -0.04084999725318
O            2.57593981719320       -0.33641997626915       -0.77091994549877
