9

C           -0.01286600041309        0.41076042329227       -0.51242832194653
C           -0.07667196146167        0.20791274150082        1.07099531384672
F            1.02745056513942        0.95036656664535       -0.99903227694276
F            0.17634944008986       -1.16547975812464       -1.01243175481953
F           -1.08353672493747        0.73329887712374       -1.11151478169868
F            1.02438199227881       -0.37927127556031        1.46257746512202
F           -0.17850041755006        1.41045648855117        1.58057877896044
F           -1.12661377882343       -0.51757969866712        1.35553711341993
H            0.25000688567762       -1.65046436476126       -1.83428153594162
