33

N           -1.40350653893951       -1.20689326834512       -0.33137707215392
C           -0.50262083109400       -0.28745881872671        0.35169558186276
C           -0.72293917101665        1.12797085298356       -0.19988147273414
O            0.02238822276523        1.63206620895763       -1.03481593239186
C            0.93619736538487       -0.72884290754614        0.17089627855636
C            1.89325523002685        0.06989806925628        1.04807907837532
H           -1.06925004516569       -1.67722495523962       -1.15558505568814
H           -0.78361370508488       -0.30762898068123        1.40578424501770
H            1.00891075187387       -1.79008818038535        0.42044361908482
H            1.59294914842770       -0.04817781106147        2.09187385186721
H            1.79954119875615        1.12921605481366        0.80356410511662
N           -1.81844764900365        1.73627588530780        0.30688728707222
H           -2.45700536648330        1.14795208036655        0.82869894424012
C           -2.26518131421626        3.00853700196741       -0.21884916773001
H           -2.83564054900958        2.89271559219674       -1.14111422535434
H           -1.39439703351229        3.62009995935862       -0.43448817351603
H           -2.88397055276650        3.50611292063329        0.52212968291965
C           -2.69530159369999       -1.36481001739932        0.04613299619138
O           -3.18945380070224       -0.73469084187713        0.98160266028219
C           -3.49121320233732       -2.37652767285026       -0.73800220615234
H           -4.37169647470963       -1.88543085046805       -1.14473396839384
H           -3.83139949622969       -3.15027838856475       -0.05375916576792
H           -2.92698792701174       -2.83548536812967       -1.54579199465585
H            1.19886385831883       -0.60358999945906       -0.88016904662883
C            3.34779189947758       -0.36107281400756        0.89125851712020
H            3.45545939200806       -1.42840213374214        1.09478114328242
H            3.95525235596412        0.16123143718196        1.63515619403385
C            3.91957019231272       -0.06469786462761       -0.48594412961847
H            3.74280303384982        0.99203202536597       -0.72091532769640
H            3.39179424554490       -0.64735089341385       -1.24060543439455
N            5.32815551869739       -0.46101464033880       -0.53049685424629
H            5.70965505994998       -0.27395933707187       -1.44948746060993
H            5.85693581487563        0.11899665077657        0.11021850009974
