6

C           -0.66347195270629        0.00000000000000        0.00000000000000
C            0.66347195270629        0.00000000000000        0.00000000000000
H           -1.23459891228295       -0.92251793435122        0.00000000000000
H           -1.23459891228295        0.92251793435122        0.00000000000000
H            1.23459891228295        0.92251793435122        0.00000000000000
H            1.23459891228295       -0.92251793435122        0.00000000000000
