7

N            0.35901196725409        0.18210056613996       -0.82697146174307
H            1.18760764712516       -0.40275292590878       -0.87731353976197
H           -0.30281555087434       -0.20755897574095       -1.48520837173437
C           -0.20100543326344        0.10258277726980        0.52040656453649
H           -1.09508432066801        0.72042887136161        0.58162745654444
H           -0.46509210619348       -0.90465939618658        0.85791213197849
H            0.51737779662003        0.50985908306495        1.22954722017999
