12

C            0.40053600175185        0.98173700429388        0.00000000000000
H            1.43956200629629        1.30567200571069        0.00000000000000
C           -0.14091800061634        0.61051200267023        1.23633000540741
H           -1.22276800534809        0.56819300248514        1.33793400585180
H           -0.02432900010641       -0.77401600338536        0.80830300353532
H            0.39042100170761        0.88048100385101        2.13929200935674
H           -0.02432900010641       -0.77401600338536       -0.80830300353532
O           -0.14091800061634       -1.70920500747565        0.00000000000000
H            0.68893600301324       -2.19791600961315        0.00000000000000
C           -0.14091800061634        0.61051200267023       -1.23633000540741
H            0.39042100170761        0.88048100385101       -2.13929200935674
H           -1.22276800534809        0.56819300248514       -1.33793400585180
