4

Al           0.00000000000000        0.00000000000000        0.00000000000000
F            1.63176588439203       -0.00000375662902        0.00000000000000
F           -0.81588619531292       -1.41314802140251        0.00000000000000
F           -0.81587968907911        1.41315177803153        0.00000000000000
