4

N            0.00000000000000        0.00000000000000        0.28518414417659
H           -0.46974915186828        0.81362939784825       -0.09506138139220
H           -0.46974915186828       -0.81362939784825       -0.09506138139220
H            0.93949830373656        0.00000000000000       -0.09506138139220
