30

C            1.36275935565582        3.06622413774155       -0.00000273775617
C            2.49537921849421        2.24560423612318       -0.00000561598234
C           -1.36275898705675        3.06622777479483        0.00000518149131
C            0.00000093850487        2.54756941473358       -0.00000693472944
C           -0.00000489786676        1.18631289772346       -0.00001621420575
C            2.42403636298145        0.78819494856982       -0.00000179527967
C           -2.49536722895992        2.24560687313814        0.00000478198929
C            3.33705438258292       -0.34960570999335        0.00000740755205
C            0.69932964836930       -3.28343223292615       -0.00000196235279
C           -0.69933089630372       -3.28342658288129       -0.00000093697961
C            1.49629588434724       -2.06181755275343       -0.00000250552161
C            0.69767480435970       -0.95971425946367       -0.00001324348704
C           -0.69766424561181       -0.95971304875142       -0.00000934026812
C           -1.49629372089491       -2.06181511637506       -0.00000441573683
C           -2.90436971632626       -1.67957330670068        0.00000041905480
C           -3.33706373270898       -0.34960948814166        0.00000398747387
C           -2.42403793760231        0.78819262692454       -0.00000155723009
C           -1.12936534297894        0.36734260564615       -0.00001491260983
C            2.90437102523723       -1.67956894098313        0.00000978134116
C            1.12936099677168        0.36734960705731       -0.00001286071739
H           -3.66930019191924       -2.44613614862996        0.00000384165625
H           -4.40664408971139       -0.18037476320926        0.00001060707974
H           -3.45986742308844        2.73781835773939        0.00001574153281
H           -1.53139957121759        4.13599870633736        0.00001354465570
H            1.53140682051742        4.13599697961598       -0.00000788901386
H            3.45986831249751        2.73783778022947       -0.00000530942705
H            4.40663702125456       -0.18037776495938        0.00002163756536
H            3.66929592018036       -2.44613587849656        0.00001721951057
H            1.19255177634675       -4.24748953752656       -0.00000088648247
H           -1.19255448585403       -4.24748561458322       -0.00000503312287
