5

F           -0.34065734532262       -0.06007695640171       -1.27171663961765
C            0.00000000000000        0.00000000000000        0.00000000000000
F            1.28518183050880       -0.26452781463261        0.12350132379467
F           -0.24633066449960        1.20863522880002        0.46415726521015
F           -0.69819382121576       -0.88403045829487        0.68405805061283
