4

S            0.00000000000000        0.00000000000000        0.53882995846595
H           -0.57824059620680        1.00154209162910       -0.17960998615532
H           -0.57824059620680       -1.00154209162910       -0.17960998615532
H            1.15648119241361        0.00000000000000       -0.17960998615532
