30

C           -0.79133024476712        0.11423296354523        1.37908979154031
C           -1.18523398024053       -0.09033058437992        0.06958354077335
C           -0.50011562225334       -1.04697462858262       -0.74713288102507
C            0.59887056098462       -1.71812797419653       -0.24376032629566
C            1.01321059750421       -1.50471745147899        1.11103700291843
C            0.34707557942983       -0.58434757144245        1.89819341689252
C            1.05012088945427        0.21630331276932        2.80641580467272
C            2.41264230357319       -0.05457245649119        2.91979760859605
N            3.08835668565008       -0.92204511471934        2.10839091739319
C            2.40729717572891       -1.58710708196519        1.19027830330896
C            1.69734690421008       -1.99816113228428       -1.06441109396184
C            1.54972249770211       -1.66038265252451       -2.40888221457405
N            0.48911808401958       -0.95768116219852       -2.90525876008152
C           -0.47637846586090       -0.60292639365171       -2.07241253225652
C           -1.66296241534497        0.97462615382119       -0.70345918278600
C           -1.81095246628584        2.18902630008641       -0.03479798082238
N           -1.38266658116121        2.41182764747279        1.24364704898564
C           -0.82730958088910        1.40905641485061        1.90534070090805
C           -1.44473135196289        0.59856335528316       -2.18706166272974
C            2.92555841627163       -2.17761057390734       -0.14344170652942
C            0.19354286307629        1.47668741796534        3.06754288383062
H            3.04536120666836        0.52482783215141        3.58149351629487
H            2.34909166832141       -1.83100736869084       -3.12022732482833
H           -2.15931428376484        3.07534949167696       -0.55167484026725
H           -0.98557516523886        1.40737102643203       -2.75385341622651
H           -2.37363065683443        0.32334249740988       -2.69312306975815
H            3.22475891967964       -3.22370347219369       -0.03610161097272
H            3.79378969164280       -1.62405737074929       -0.49730450553413
H           -0.30387887892051        1.45480095032038        4.04081657423922
H            0.78021571548506        2.39273761248483        3.01727603405518
