17

Si           0.00000000000000        1.94735465911831       -0.86167307653701
Si           0.00000000000000        0.00000000000000        0.44778742787317
Si           0.00000000000000       -1.94735465911831       -0.86167307653701
Si           0.00000000000000       -3.87997256492877        0.46994745023905
H            1.20207097101227        1.94015124467869       -1.73916016042794
H           -1.20207097101227        1.94015124467869       -1.73916016042794
Si           0.00000000000000        3.87997256492877        0.46994745023905
H            1.20053472856914        0.00000000000000        1.32789740080200
H           -1.20053472856914        0.00000000000000        1.32789740080200
H            1.20207097101227       -1.94015124467869       -1.73916016042794
H           -1.20207097101227       -1.94015124467869       -1.73916016042794
H            0.00000000000000       -5.11417925607059       -0.35778138600235
H            1.20544268169819       -3.89160740652517        1.33801810920881
H           -1.20544268169819       -3.89160740652517        1.33801810920881
H            0.00000000000000        5.11417925607059       -0.35778138600235
H           -1.20544268169819        3.89160740652517        1.33801810920881
H            1.20544268169819        3.89160740652517        1.33801810920881
