13

C           -0.92685460405384       -0.13844150829782       -0.01301560774923
C           -0.22827230099841        1.11277689717471        0.01960219239343
C            1.12175090490627        1.03761469684597        0.06461319259030
N            1.72682200755270       -0.17038240843751        0.07964049265602
C            1.02865690449909       -1.39549191379585        0.04931039252336
N           -0.34097590149134       -1.31096651342616       -0.00376550770877
O            1.66266410727209       -2.43268021833226        0.06652399259865
N           -2.28570300999711       -0.12552860824134       -0.02000500777980
H           -0.73883360323148        2.06094060132175        0.01672589238085
H            1.76327920771215        1.90538900064140        0.09218179271088
H           -2.77300541212845        0.71288929542570       -0.27086430887700
H           -2.73911011198020       -1.00477641208695       -0.19509140854559
H            2.72958181193853       -0.25134290879162        0.11414389280693
