4

F           -1.48811324739707       -0.47988413462937        0.10483201529523
O           -0.48397991385323        0.56983579047270       -0.38275062591161
O            0.48397991385323        0.56983579047270        0.38275062591161
F            1.48811324739707       -0.47988413462937       -0.10483201529523
