5

O           -2.11621984947858       -0.99147992959897        3.11185977924771
Cl          -3.04984978347463        0.18535998705651        2.89079979465132
O           -2.51682982154638        0.95603993216894        1.71472987846365
O           -4.39201968839111       -0.32143997698185        2.59169981575172
O           -3.04238978394542        1.04016992589061        4.08107971018764
