14

C            0.00000000000000        0.60654895705071        0.00000000000000
C           -0.64461095400513        1.72970487702631        0.00000000000000
C            0.85601193946816        1.84040586923597        0.00000000000000
C            0.01454499921544       -0.83101694078311        0.00000000000000
C            1.17985091646432       -1.48659389442703        0.00000000000000
H           -1.57031188876432        2.27386683870027        0.00000000000000
H            2.11761384989254       -0.94904193239124        0.00000000000000
H            1.37461490221063        2.13305684854710        0.91146093529609
H            1.22002491311437       -2.56724781797385        0.00000000000000
C           -1.32202390624291       -1.51966789186280        0.00000000000000
H           -1.90405586456223       -1.22869791275514        0.87663893800100
H           -1.90405586456223       -1.22869791275514       -0.87663893800100
H           -1.21108891398730       -2.60258181538758        0.00000000000000
H            1.37461490221063        2.13305684854710       -0.91146093529609
