29

N           -0.18604241037469       -1.12381348256666       -2.01443642624858
H           -0.20128861702053       -2.13234018395986       -1.94411361318661
C           -1.42347962232501       -0.50381202323597       -2.24253887526699
O           -2.43837422742828       -1.17002246590150       -2.35130548346599
C           -1.33491974540972        0.94395458291682       -2.32105366059325
H           -2.23370962870095        1.50849966598502       -2.49935011879969
C           -0.14014083243179        1.55066152159042       -2.16807113458934
H           -0.02342810558398        2.62321478345904       -2.21584777101497
N            1.00831438217552        0.84159312297835       -1.93799110852878
H            1.89042199940222        1.30769674007097       -1.80441318011299
C            1.04988319523078       -0.53840101004650       -1.83655024812977
O            2.07205890674452       -1.15662633422391       -1.61193771011701
C            1.16427473916068        2.19780042762932        1.50788045357809
H            0.73342615565839        2.50884910094861        0.55509795428251
H            0.53004087300152        2.60323351976794        2.29612804860946
H            2.14715469504480        2.65824780710065        1.60100193277410
C            1.23729119757881        0.67892958565665        1.59739878842885
H            1.66767481105791        0.38936675013734        2.55868967515184
H            1.91188074174149        0.28776906225093        0.83228067731081
C           -0.12749389503244        0.02076298056205        1.44258204001841
H           -0.79873810787030        0.38963876415742        2.22420122586560
H           -0.57496473272848        0.33102797524099        0.49268188167639
C           -0.07120496108897       -1.49992346260028        1.50221753191945
H            0.35240050457648       -1.80235385637747        2.46285365074573
H            0.62031673243817       -1.86180237621130        0.73771515817459
C           -1.44048778587911       -2.14179662728632        1.31844389378459
H           -1.87886675000884       -1.86833896362418        0.35825845296339
H           -1.38354899692015       -3.22856493685419        1.36250107906413
H           -2.12845051500798       -1.81345066756444        2.09767688570598
