4

N            0.16702111078066       -0.04869175131678        0.34038633362976
Cl          -0.70452113469774        0.76519309875173       -0.85508252045429
Cl           1.49409882755103        0.69605064480020        1.07409212072455
Cl          -0.27659880065980       -1.61355199311427        0.79360407201768
