5

C            0.09917125691303        0.41330082958814        0.00000000000000
H            0.03141747485336        1.50496911110398        0.00000000000000
O            1.12094344487377       -0.21509732744031        0.00000000000000
O           -1.13332394842674       -0.12183971581927        0.00000000000000
H           -1.01669909304233       -1.08167883978985        0.00000000000000
