21

N            1.25693959222128        1.63661876618555       -0.15797359139503
C            1.52792781227407        0.36465413781455        0.52204749887564
C            1.82717245671036       -0.71503489300959       -0.51060543160932
O            1.24031157845873       -1.75315579356377       -0.58633291307293
H            1.25635971176574        2.39304944076175        0.51779226943458
O            2.82700013525290       -0.34915998745726       -1.30060631713047
H           -0.51920526978138        1.30006026239791       -0.76660814377044
H            2.40734877681022        0.42753631188321        1.18039397194665
C            0.32842019071529       -0.03664579811335        1.38133579333320
C           -0.91906900299868       -0.22320476732162        0.58806604506433
H            0.16588811530111        0.73577564675608        2.14128411035885
H            0.54753665053093       -0.95670261646976        1.92406324572193
C           -1.94692379584876       -1.10215602966618        0.69004763339957
N           -1.21261431091631        0.58376226777284       -0.48151698852275
H           -2.11387194994666       -1.91519431590923        1.37624603422013
H           -3.68635341125582       -1.28625548862482       -0.51534831775821
C           -2.35670545105305        0.22015328103274       -1.02815787475793
N           -2.82164627686971       -0.80029514956765       -0.32369502909601
H           -2.82915123601902        0.66825036612749       -1.88707154011094
H            1.98870495710498        1.85444079291525       -0.82496119821953
H            3.03193072754374       -1.04649643394410       -1.93839925691128
