16

N            0.15661070068498       -1.51781390663855        0.04379720644156
C            0.99334300434464       -0.43779700191482       -0.03358009389687
C            0.56443600246871        0.88203960385783       -0.06488379403379
C           -0.81432810356167        1.24979480546630       -0.05131409397444
N           -1.58863950694832        0.08173390035748        0.00848220628710
C           -1.10004320481132       -1.20498030527029        0.05339120648352
N            1.69456550741162        1.64197930718162       -0.13032299432000
C            2.74013771198470        0.76831500336042       -0.13380419433523
N            2.35905301031792       -0.49401940216072       -0.07527189407922
O           -1.31780570576376        2.36146071032845       -0.09313939415737
N           -2.06525760903293       -2.19440750959780        0.04598980645115
H           -2.58463821130458        0.22967070100452       -0.06079999401593
H            3.76091451644932        1.10590800483697       -0.17977009453627
H           -2.87264091256423       -2.01898740883056        0.62151090896834
H           -1.65725970724845       -3.09907651355461        0.22026920721340
H            1.73155250757339        2.64618001157375       -0.17055399449596
