7

C           -0.56760088936550        0.09225706975690        0.00000000000000
N            0.89401100965840        0.17501316474308        0.00000000000000
H            1.28469243525689       -0.28172731071564        0.81563688650618
H            1.28469243525689       -0.28172731071564       -0.81563688650618
H           -0.95722225544909        0.61157886912807        0.87795269393117
H           -0.98135047990851       -0.92697335132483        0.00000000000000
H           -0.95722225544909        0.61157886912807       -0.87795269393117
