23

N            1.06312764090610        0.57758999402385       -0.08025714735521
C           -0.14704602082063        0.67771594338246        0.71468174461004
C           -1.26507830931909       -0.16787812086558        0.09405134749404
O           -2.21782838826692        0.34926927797360       -0.49665258124642
C           -0.56242130155039        2.13843571318439        0.76575837091722
O           -0.70030428054290        2.66128269922053       -0.54404162978349
H            1.18338665133034        1.27888382949308       -0.79447709963210
H            0.07715306287147        0.30049359161802        1.71348076012163
H           -1.48860787400853        2.23000490950914        1.33572255767360
H            0.21345014651593        2.71925277253432        1.26114648651300
H           -1.43272764956304        2.14531135067173       -0.91679541436768
N           -1.09283867284789       -1.49250693929790        0.24977242574295
H           -0.20587046913535       -1.78491822246388        0.64688816407685
C           -1.98199807565069       -2.45771025722108       -0.36091365307981
H           -1.55195078658743       -2.87733855486716       -1.26979747352542
H           -2.19065989100506       -3.26424760121344        0.33706248280110
H           -2.90663544912961       -1.94899702508782       -0.61381312491066
C            1.92346489875905       -0.45869921857003        0.03460532779246
O            1.72394305500971       -1.39667532055898        0.81020970009198
C            3.15648281669896       -0.38794312199372       -0.82777980587730
H            4.02581014548005       -0.31033032353510       -0.17849947475883
H            3.14817079546534        0.45371704248383       -1.51522196091834
H            3.24389096420333       -1.31581942861594       -1.38691400684864
