16

F            0.73766839098732        2.72045715735865        2.33329218056837
H            2.15021951821878        1.53108861287524       -2.29045418967429
C           -1.17924650192777        0.22226921013679       -1.83025492818909
C           -0.79255109566656       -0.88938375670306       -1.44821801944869
Al           0.63032986495628       -2.26565129360467       -1.05587775325888
H           -0.39356015874162       -2.55877459400755        0.79670336571430
Mg           1.32928840282126        0.31916437297485       -1.37124234921242
H            0.22722796660212       -2.14058489132205        0.96942615428318
H            1.98899650622787        2.18553647977004        0.32462459138649
O            1.31900929184132        1.48833058325670        0.44144292985821
B            0.46408229362453        1.68831253356580        1.52388504738090
H            0.03418615769718       -3.73777831568887       -1.19716762561961
N           -0.62963803390267        0.83530597929975        1.70928931784580
B           -1.63897216950373        0.09009172924996        1.64005159554413
H           -2.58196214965266       -0.59971166786912        1.62914083864955
H           -1.66507828358164        1.11132786070753       -2.17464115582792
