4

N            0.00000000000000        0.00000000000000        0.00000000000000
H            0.50940006798525       -0.88230679912950        0.00000000000000
H            0.50940006798525        0.88230679912950        0.00000000000000
H           -1.01880013597050        0.00000000000000        0.00000000000000
