29

N           -1.28029672662017       -0.99040117658908       -0.60546069545801
C           -0.05814716069167       -0.30094491883360       -0.22819205789880
C           -0.29796960169978        1.16531871160389        0.11776958751606
O            0.49791384925266        1.78657936983437        0.82369812267795
C            0.94187398474950       -0.42071393354118       -1.38167763315598
C            2.30771279693329        0.19828110507541       -1.08775196561998
C            2.96653602778451       -0.52051352632688        0.07605878544682
O            3.51241177653444       -1.60697385872494       -0.07028683712094
H           -1.24243332363996       -1.58083749617329       -1.42119015827239
H            0.35170787210425       -0.75226643643418        0.67642202209019
H            1.08637287668637       -1.48267627397522       -1.59380633697415
H            0.50815515805476        0.04583426692395       -2.26923098947368
H            2.94908035599160        0.05483947934725       -1.95469771506010
H            2.21173483930038        1.26355966323676       -0.89119491122993
C           -2.19976409291976       -1.30724129308814        0.36683848927641
O           -2.14202948938704       -0.81119352790869        1.48084081038172
N           -1.37023695183112        1.73313783375695       -0.46624999745333
H           -2.02598206425735        1.10466189813825       -0.89902164057266
C           -1.75902735302023        3.09536494246332       -0.16887813024250
H           -2.25353211805437        3.53148425471680       -1.03232329030596
H           -2.42579352476856        3.14129378751740        0.69170598034058
H           -0.86130477738459        3.66069889796465        0.05935399609294
C           -3.26981823272983       -2.28663878699750       -0.04682530611978
H           -3.02102540883489       -3.26440646985066        0.36281558122838
H           -3.36877793065804       -2.37298260214177       -1.12632245414180
H           -4.21585475565737       -1.97505763756962        0.38531677634906
N            2.88171688666281        0.13242125486853        1.26381605420539
H            3.17888273588095       -0.37338370519030        2.08103970620363
H            2.19181332507531        0.86732318548404        1.36057418324900
