5

F            0.00000000000000        0.00000000000000        2.69355880869899
I            0.00000000000000        0.00000000000000        0.76509394571152
P            0.00000000000000        0.00000000000000       -2.41238382885543
C            0.00000000000000        0.00000000000000       -3.93351772045434
H            0.00000000000000        0.00000000000000       -5.00514864443637
