10

O           -3.69657293016791        0.00015298700067       -3.61861756582695
C           -4.84398977818643        0.00194415500850       -3.21141546104595
C           -6.00309759525609       -0.00055234800242       -4.18587698030801
C           -5.13220614544702        0.00667119502918       -1.72526393754589
H           -5.91776330588286        0.87330307381962       -4.82939394612260
H           -5.91884561688759       -0.87869898584321       -4.82365327809749
H           -6.97322496749919        0.00163776700716       -3.69903267817867
H           -6.19307046808698        0.00805524803523       -1.49529258754005
H           -4.66254023339282       -0.86711611679255       -1.27680105758442
H           -4.66140784238786        0.88256913186014       -1.28215677560784
