13

C           -0.17104257817658        2.37095643646356        0.18902543866013
C            0.41810140867300        1.18055828557545        0.19742452501201
C            0.00000000000000        0.00000000000000       -0.64082245431704
C           -0.41810140867300       -1.18055828557545        0.19742452501201
C            0.17104257817658       -2.37095643646356        0.18902543866013
H           -1.02168318197243        2.58106871680244       -0.45160893549736
H            0.17595682458971        3.18115479028913        0.81920954772760
H            1.26514776928015        1.00944784710148        0.85796471521598
H            0.82855229667349       -0.30068568384786       -1.29160406395985
H           -0.82855229667349        0.30068568384786       -1.29160406395985
H           -1.26514776928015       -1.00944784710148        0.85796471521598
H            1.02168318197243       -2.58106871680244       -0.45160893549736
H           -0.17595682458971       -3.18115479028913        0.81920954772760
