16

C           -0.25826200112957        1.54906700677524       -0.42025800183810
H           -1.35297400591758        1.50834400659713       -0.44775400195837
O            0.20114800087977        2.89635001266793       -0.37787900165275
C            0.25826200112957        0.72061300315179        0.75075400328362
H            1.35043400590647        0.73358000320850        0.73615200321975
H           -0.05016600021941        1.20841000528529        1.67987500734737
C           -0.25826200112957       -0.72061300315179        0.75075400328362
H           -1.35043400590647       -0.73358000320850        0.73615200321975
H            0.05016600021941       -1.20841000528529        1.67987500734737
H           -0.12557700054924        3.28516901436853        0.43803400191585
H            0.10801200047242        1.15472000505046       -1.36625400597566
C            0.25826200112957       -1.54906700677524       -0.42025800183810
H           -0.10801200047242       -1.15472000505046       -1.36625400597566
H            1.35297400591758       -1.50834400659713       -0.44775400195837
O           -0.20114800087977       -2.89635001266793       -0.37787900165275
H            0.12557700054924       -3.28516901436853        0.43803400191585
