8

C           -1.36778959111847        0.05346502385626        0.00000000000000
O           -0.18434873171427        0.76092987925674        0.00000000000000
C            0.97649545054328        0.06189519699043        0.00000000000000
H           -2.24073218127514        0.67941115981510        0.00000000000000
H           -1.35012811854607       -1.02334661456847        0.00000000000000
F            1.98043421465782        0.93231951504618        0.00000000000000
F            1.09303447872643       -0.73233708019812        1.08289897156928
F            1.09303447872643       -0.73233708019812       -1.08289897156928
