37

O            2.59032433707332       -2.72635136476985        1.13962162723058
C            2.90032433859907       -1.79735136019752        0.42962162373612
O            2.82632433823486       -1.86435136052727       -0.90337838282461
H            3.10532433960804       -0.99535135625025       -1.28237838468996
C            3.40132434106489       -0.46835135365647        0.98362162646279
H            4.41232434604080       -0.29035135278040        0.61162162463189
H            3.42332434117316       -0.54435135403053        2.06562163178815
N            2.56232433693551        0.65664865188053        0.61362162464173
H            1.89132433363300        1.05664865384924        1.26862162786549
C            2.57632433700442        1.16864865440048       -0.62637838146128
O            3.24632434030201        0.69264865205771       -1.55237838601884
C            1.70032433269294        2.39764866044934       -0.81737838240134
H            1.90232433368714        2.78764866236883       -1.80937838728374
H            1.95932433396768        3.14664866413575       -0.06737837871000
N            0.28732432573847        2.09464865895805       -0.71237838188455
H           -0.33367567731796        2.14564865920905       -1.50837838580228
C           -0.32567567727858        1.93664865818040        0.47162162394283
O            0.27032432565480        1.91064865805243        1.55462162927312
C           -1.84567568475968        1.82064865760947        0.39662162357370
N           -2.29867568698925        1.80464865753073       -0.99337838326757
H           -3.20367569144345        2.24764865971108       -1.07437838366623
H           -2.41467568756018        0.84164865279106       -1.29837838476871
H           -2.21067568655613        2.73664866211782        0.86562162588202
C           -2.31967568709261        0.62464865172303        1.24562162775229
H           -1.82367568465141        0.68164865200357        2.21362163251657
H           -3.39467569238351        0.72764865222997        1.40562162853977
C           -2.03267568568006       -0.68235135470973        0.56362162439564
C           -3.00867569048371       -1.28335135766772       -0.24037837956147
H           -3.99267569532674       -0.83435135545784       -0.30237837986662
C           -2.73967568915975       -2.46235136347050       -0.93337838297226
H           -3.50867569294460       -2.91535136570006       -1.54437838597947
C           -1.48567568298784       -3.05735136639895       -0.82837838245547
H           -1.27367568194443       -3.97535137091714       -1.35937838506894
C           -0.50567567816450       -2.47835136354925       -0.02237837848852
H            0.46232432659978       -2.94835136586248        0.08262162202827
C           -0.77867567950815       -1.29635135773170        0.66262162488289
H           -0.02067567577744       -0.85935135558089        1.30162162802791
