60

C            3.69552041616331        0.58348610255203        0.44256370193567
C            3.13431131370871        1.68451880736767       -0.24556700107405
C            2.93822981285110        1.25581290549262       -1.63390630714631
C            3.69552041616331       -0.58348610255203       -0.44256370193567
C            3.24797931420587       -0.17713170077473       -1.71743890751166
C            3.13431131370871       -1.68451880736767        0.24556700107405
C            3.24797931420587        0.17713170077473        1.71743890751166
C            2.93822981285110       -1.25581290549262        1.63390630714631
C            2.39244281046396        1.04066400455161        2.41626861056817
C            2.16993550949077        2.52987601106506        0.40620930177666
C            1.89676710829600        2.23878890979192        1.78335400779996
C            1.10596910483724        3.14415731375178       -0.40620930177666
C            1.88292960823548        1.76302260771103       -2.36154271032881
C            0.99046450433205        2.76204291208051       -1.78335400779996
C            1.10397900482854        0.89541610391633       -3.24236691418132
C            2.39244281046396       -1.04066400455161       -2.41626861056817
C            1.33675570584664       -0.48470340211997       -3.24956211421279
C            2.16993550949077       -2.52987601106506       -0.40620930177666
C            1.89676710829600       -2.23878890979192       -1.78335400779996
C            1.10596910483724       -3.14415731375178        0.40620930177666
C            1.88292960823548       -1.76302260771103        2.36154271032881
C            0.99046450433205       -2.76204291208051        1.78335400779996
C            1.33675570584664        0.48470340211997        3.24956211421279
C            1.10397900482854       -0.89541610391633        3.24236691418132
C            0.58535760256021        2.51217611098765        2.36154271032881
C            0.22346360097737        1.40378190613980        3.24236691418132
C           -0.10831960047376        3.55665261555593        0.24556700107405
C           -0.38154900166880        3.17248811387569        1.63390630714631
C           -1.34244640587153        3.49215761527385       -0.44256370193567
C           -0.29498000129017        2.59224831133786       -2.41626861056817
C           -0.24861240108737        1.40001610612333       -3.24956211421279
C           -1.47058910643200        2.90139841269001       -1.71743890751166
C           -1.32744260580591        0.50836580222347       -3.24236691418132
C            0.22346360097737       -1.40378190613980       -3.24236691418132
C            0.58535760256021       -2.51217611098765       -2.36154271032881
C           -1.08814330475927       -0.91531270400336       -3.24956211421279
C           -0.10831960047376       -3.55665261555593       -0.24556700107405
C           -0.38154900166880       -3.17248811387569       -1.63390630714631
C           -1.34244640587153       -3.49215761527385        0.44256370193567
C           -0.29498000129017       -2.59224831133786        2.41626861056817
C           -0.24861240108737       -1.40001610612333        3.24956211421279
C           -1.47058910643200       -2.90139841269001        1.71743890751166
C           -1.08814330475927        0.91531270400336        3.24956211421279
C           -1.32744260580591       -0.50836580222347        3.24236691418132
C           -1.77739020777387        2.72426671191528        1.71743890751166
C           -2.35307401029177        2.90867151272182        0.44256370193567
C           -2.09746290917379        1.55158430678625        2.41626861056817
C           -2.55668081118230        1.91667520838307       -1.63390630714631
C           -2.46828711079569        0.74915350327661       -2.36154271032881
C           -3.02599171323495        1.87213380818826       -0.24556700107405
C           -2.09746290917379       -1.55158430678625       -2.41626861056817
C           -1.77739020777387       -2.72426671191528       -1.71743890751166
C           -2.35307401029177       -2.90867151272182       -0.44256370193567
C           -2.88723161262805       -0.52325400228858       -1.78335400779996
C           -2.55668081118230       -1.91667520838307        1.63390630714631
C           -2.46828711079569       -0.74915350327661        2.36154271032881
C           -2.88723161262805        0.52325400228858        1.78335400779996
C           -3.27590471432801        0.61428130268672        0.40620930177666
C           -3.02599171323495       -1.87213380818826        0.24556700107405
C           -3.27590471432801       -0.61428130268672       -0.40620930177666
