33

N            0.53063850763426        2.72430592765046        0.59876671491460
C            1.62824843003326        2.29318095859515       -0.11474423433516
C            1.32132445176815        1.14160903997276       -0.80539518528296
C           -0.05831945061143        0.85429306072786       -0.51638020587175
C           -0.93743538776009       -0.16233586712055       -0.91808517735405
C           -2.24453429527830       -0.14781686849819       -0.44908921045010
C           -2.69110926347350        0.86771105959534        0.42713372705761
C           -1.83403332432104        1.88198098740563        0.83864069828933
C           -0.52304641742330        1.86726998847419        0.36099673219276
H            0.48213451131129        3.57490486738986        1.12873267768137
H            2.55664336416816        2.84074791949951       -0.07634323693424
H           -0.62816540975342       -0.96541481026889       -1.57205913098620
H           -3.70703519156829        0.86958705948432        0.79051570133070
H           -2.18559429939802        2.65417893291114        1.51074865057533
O           -3.04551423849839       -1.16467779610269       -0.89753517886800
C           -4.33753914633545       -1.26703478872714       -0.32452121938882
H           -4.28367415041153       -1.37521378108830        0.76076570355719
H           -4.95819010242866       -0.40321885014616       -0.57381020146003
H           -4.78206911502005       -2.16034872560202       -0.75290918918661
C            2.27637938406026        0.32007709850594       -1.61338912795372
C            2.90888133893484       -0.83055281959223       -0.80965118507849
N            1.96345640580659       -1.84529374792922       -0.38949321474855
C            1.30734345279916       -1.95883473950708        0.80946870014538
C            1.74215142168673       -1.03181180524360        1.92586162106334
H            1.77056641965941       -0.09643487206233       -2.48854306558168
H            3.08477832615926        0.95426805368508       -1.98749010152310
H            3.67888728426317       -1.31178078546091       -1.41740014194423
H            3.40317530398632       -0.42571584875676        0.07146875251799
H            1.60123943156780       -2.46880070359278       -1.09426416470168
O            0.43120751467080       -2.79710368036653        0.96530168893847
H            2.80090234645466       -1.16191479625209        2.15289660481591
H            1.57452243361650        0.01027412051219        1.65643664018033
H            1.15377946370085       -1.28008378809203        2.80336855838902
