10

O           -2.46302023409549        1.18518068944525        0.00000000000000
C           -1.34180586808680        1.20364725922835        0.00000000000000
C            0.03389007598242        1.25250985466494        0.00000000000000
H            0.46725636392648        2.24892776482935        0.00000000000000
C            0.75528661355526        0.10042342067227        0.00000000000000
H            1.83617330686103        0.22628933321433        0.00000000000000
C            0.24416282297098       -1.26812245117999        0.00000000000000
H           -0.84242810213498       -1.35331435645835        0.00000000000000
H            0.65524251051054       -1.79777075720807        0.86946789475585
H            0.65524251051054       -1.79777075720807       -0.86946789475585
