39

N           -0.40955060274885        1.88595393095666        2.53145911976524
C           -0.50779349540532        1.27171046463456        1.55112520199796
C           -0.63660212425179        0.52288863679257        0.28877723444110
C           -0.09164317627316       -0.91197062466167        0.42976156628227
C           -0.42287435862385       -1.85143585311364       -0.55725762850695
C            0.14295025690753       -3.12756835440672       -0.53911144881288
C            1.04489772850764       -3.48181800504033        0.47099447646271
C            1.37240480089858       -2.55098406320914        1.45957436123720
C            0.81002866558632       -1.27033815683708        1.43763057076252
H           -1.13093575186561       -1.58220128041874       -1.33803141399508
H           -0.12330178458926       -3.84638825867269       -1.31164854232534
H            1.48680525631484       -4.47596220211294        0.48620757602520
H            2.07387795528668       -2.81478676120981        2.24835734768527
H            1.08617393593532       -0.54693387449114        2.20096977012450
C           -2.14425475219700        0.50170196328246       -0.06378424763863
C           -2.66560355469542        1.08822633210752       -1.22180031721509
C           -4.03752046922576        1.01485004891617       -1.49796727744357
C           -4.89991403753059        0.35989229014239       -0.61766841129819
C           -4.38448465778750       -0.22414481899486        0.54645503095362
C           -3.01907030411078       -0.15431604673526        0.81763817892038
H           -2.01724960998805        1.60619039942641       -1.92200231962938
H           -4.42634893471926        1.47440981832757       -2.40453643476583
H           -5.96506724362452        0.30509898274789       -0.83302990856628
H           -5.04719283072670       -0.73545774255600        1.24172932354986
H           -2.61792222253087       -0.61429150293353        1.71833064614622
C            0.22386485951908        1.27265180779186       -0.80301431684472
C            1.70390225193823        1.29142941190058       -0.51030352048290
C            2.52034869081656        0.24354355750375       -0.96002344564717
C            3.87239475655226        0.25539051249739       -0.63803269376308
C            4.45328746099144        1.27100024156231        0.11708604901582
C            3.63203427304350        2.31253998268636        0.56070502673321
C            2.26901696926050        2.32494579492861        0.25050322627137
H            2.10880209668042       -0.58308962475653       -1.53238766067747
F            4.65571028787796       -0.76950092131843       -1.07440500084090
H            5.51558634055298        1.23881144537053        0.34387838157843
H            4.06067237597735        3.11794227712304        1.15302167763412
H            1.63617010770483        3.13230349871196        0.61044098307424
H            0.03432386686067        0.75280430680648       -1.74825773668440
H           -0.15592302631846        2.29690238725142       -0.89138342352341
