7

Br           2.28161283787406       -0.22504898379675       -0.00003800021552
Br           0.05427099602626        0.33266497658557        0.00007199985132
O           -2.58575881623135        0.80639294294885       -0.00017700025186
P           -3.34009776272092       -0.47911996622360        0.00000199976068
H           -3.11218277896288       -1.33643090503776        1.09620592212328
H           -3.11199177879873       -1.33685090505240       -1.09583592194659
H           -4.74420866293559       -0.35763597443822       -0.00014499984756
