6

C            0.00000000000000        0.00000000000000        0.73389664520128
N            0.00000000000000        0.00000000000000       -0.67973087990985
O           -1.09742864459050        0.00000000000000       -1.24760235964110
O            1.09742864459050        0.00000000000000       -1.24760235964110
H           -0.96173635770704        0.00000000000000        1.22051947699539
H            0.96173635770704        0.00000000000000        1.22051947699539
