6

C            0.66609296644531        0.00000000000000        0.00000000000000
H            1.22807406814689       -0.92288585292249        0.00000000000000
H            1.22807406814689        0.92288585292249        0.00000000000000
C           -0.66609296644531        0.00000000000000        0.00000000000000
H           -1.22807406814689       -0.92288585292249        0.00000000000000
H           -1.22807406814689        0.92288585292249        0.00000000000000
