7

C           -0.02390885638014       -0.05302641686508       -0.10745866625343
N            0.00092066826226        0.00365468346539        1.44477708648883
H            0.94208619191860       -0.01259041968705        1.82514475551815
H           -0.46202504508251        0.82039651439460        1.83220556605734
H           -0.47773812360126       -0.80605899623069        1.81564861294335
H           -0.49462389480570        0.88965947962562       -0.38874381848577
H            1.02864906193406        0.04713015918619       -0.37957750984224
