13

Pb          -0.00000000000000        0.00000000000000       -0.89598767199200
C            1.04599714463350        1.81172019907719       -0.03444458742708
C            1.04599714463350       -1.81172019907719       -0.03444458742708
C           -2.09199428926699        0.00000000000000       -0.03444458742708
H            0.99493448423565        1.72327707689848        1.05244513857598
H            2.08477964420067        1.82447383774685       -0.35966899690893
H            0.53765086992852        2.71770905204388       -0.35966899690893
H           -2.62243051412919        0.89323521429704       -0.35966899690893
H           -2.62243051412919       -0.89323521429704       -0.35966899690893
H           -1.98986896847129        0.00000000000000        1.05244513857598
H            0.53765086992852       -2.71770905204388       -0.35966899690893
H            2.08477964420067       -1.82447383774685       -0.35966899690893
H            0.99493448423565       -1.72327707689848        1.05244513857598
