5

Te           0.15484298914414       -1.24517931140557        0.00000000000000
H           -1.40044390069040       -0.75199034668869        0.00000000000000
H           -0.32770397685240       -2.80730220082317        0.00000000000000
H            1.41846189925452        2.32823743455613        0.00000000000000
Cl           0.15484298914414        2.47623442436130        0.00000000000000
