5

C           -1.13177822094700        0.15744930745441       -0.20511890212549
H           -1.92265631408877        0.16979280352831        0.52564962618565
N            0.05350137053342        0.12204222960950       -0.08218367200231
N            1.28661142581619        0.24030426191584       -0.11445995543055
H            1.71432173868617       -0.68958860250807       -0.12388709662731
