5

Pb           0.00000000000000        0.00000000000000        0.00000000000000
H            0.99444792952601       -0.99444792952601        0.99444792952601
H           -0.99444792952601        0.99444792952601        0.99444792952601
H            0.99444792952601        0.99444792952601       -0.99444792952601
H           -0.99444792952601       -0.99444792952601       -0.99444792952601
