8

C            0.62779700274583        0.94689600414149        0.01584200006929
H            1.45314700635571        1.66509200728271        0.04348700019020
H           -0.60329000263864       -1.04882700458731       -0.04451300019469
H           -1.42060800621340        0.33082700144696       -0.04214800018434
O           -1.73107000757128       -0.71027300310656       -0.09603900042005
H           -2.18326800954908       -0.95564100417974        0.72170000315654
O           -0.53489500233950        1.40861200616093       -0.00324800001420
S            1.06968500467854       -0.70372100307791        0.00129500000567
