35

C            0.00000000000000       -6.34744638376516       -0.36782003461515
C            0.00000000000000       -5.08622415720388        0.48590457629168
C            0.00000000000000       -3.81470145357559       -0.35131394567798
C            0.00000000000000       -2.54154501911571        0.48245064718930
C            0.00000000000000       -1.27224225968227       -0.35833647636117
C            0.00000000000000        0.00000000000000        0.47746275606159
C            0.00000000000000        1.27224225968227       -0.35833647636117
C            0.00000000000000        2.54154501911571        0.48245064718930
C            0.00000000000000        3.81470145357559       -0.35131394567798
C            0.00000000000000        5.08622415720388        0.48590457629168
C            0.00000000000000        6.34744638376516       -0.36782003461515
H            0.00000000000000       -7.24804208882326        0.24566055969000
H           -0.88190900358364       -6.37605652829941       -1.00906602723193
H            0.88190900358364       -6.37605652829941       -1.00906602723193
H            0.87759071374807       -5.08230429160857        1.13774560036451
H           -0.87759071374807       -5.08230429160857        1.13774560036451
H            0.87736455309449       -3.81444777451430       -1.00569534375294
H           -0.87736455309449       -3.81444777451430       -1.00569534375294
H            0.87802829653301       -2.53884738048146        1.13583263534685
H           -0.87802829653301       -2.53884738048146        1.13583263534685
H            0.87796819945580       -1.27381478497087       -1.01196216076084
H           -0.87796819945580       -1.27381478497087       -1.01196216076084
H            0.87794399573079        0.00000000000000        1.13101388752122
H           -0.87794399573079        0.00000000000000        1.13101388752122
H            0.87796819945580        1.27381478497087       -1.01196216076084
H           -0.87796819945580        1.27381478497087       -1.01196216076084
H            0.87802829653301        2.53884738048146        1.13583263534685
H           -0.87802829653301        2.53884738048146        1.13583263534685
H            0.87736455309449        3.81444777451430       -1.00569534375294
H           -0.87736455309449        3.81444777451430       -1.00569534375294
H            0.87759071374807        5.08230429160857        1.13774560036451
H           -0.87759071374807        5.08230429160857        1.13774560036451
H            0.88190900358364        6.37605652829941       -1.00906602723193
H            0.00000000000000        7.24804208882326        0.24566055969000
H           -0.88190900358364        6.37605652829941       -1.00906602723193
