26

C            2.35020783320353        0.61495772558594        0.25990594326029
C            1.47606189508152       -0.60282518804247       -0.02739803636218
C            0.11989199161747       -0.24960021310909       -0.65394599194904
C           -0.92738693426260        0.32075974644139        0.33442493792587
C           -1.84022186919079       -0.89040516744777        0.62445391718342
O           -1.30121890747612       -1.72800410804447        1.64631984465366
C           -1.77629487393677       -1.65227711346279       -0.69085098949941
O            3.59667074458076        0.23783675249089        0.82570590287864
O           -1.74524587628809        1.32725867515892       -0.24728702111306
O            2.23385084150233       -1.41105813042547       -0.93031297243140
O           -0.44004496867223       -1.47240112637060       -1.17819595499539
C           -1.13842891902645        2.60886358416998       -0.32792701492730
H            2.50060682239943        1.17581168595169       -0.67616399034202
H            1.86995086729939        1.27720667832842        0.98690089141762
H            1.30297590725580       -1.15847614842219        0.90581289723498
H            0.26822398076024        0.44176873764954       -1.49422293224848
H           -0.46538796699142        0.69971671944923        1.25881687188977
H           -2.85479479752192       -0.55599819134326        0.86924089979071
H           -1.40143890048597       -1.29252913879977        2.50293978386582
H           -1.95436386108568       -2.72212803771038       -0.56021999869931
H           -2.49766282257208       -1.23668214297057       -1.40670393844021
H            3.95614971888792       -0.46788819760888        0.26758594239398
H            1.65272188281760       -2.12712207978310       -1.22841895120817
H           -0.85070593953427        2.97343555786716        0.66951291377061
H           -0.25040598219106        2.60702658411226       -0.97510296919191
H           -1.88370986617051        3.28275253633535       -0.75486998485743
