16

H           -1.96835543631230        1.06706730429362        1.34307138300120
C           -1.11416519272444        1.01457428932429        0.68421719511696
C            0.22922219036687        0.72932520798033        1.09945031352822
C           -1.11416519272444        1.01457428932429       -0.68421719511696
H            1.98243669032782        0.70630020141433        0.00000000000000
N            1.03477842008586        1.05782430165781        0.00000000000000
C            0.22922219036687       -1.33411138044609        0.70659720149902
H            0.61593330064457        0.86963624799257        2.10018759890664
C            0.22922219036687       -1.33411138044609       -0.70659720149902
H           -1.96835543631230        1.06706730429362       -1.34307138300120
C            0.22922219036687        0.72932520798033       -1.09945031352822
H            0.61593330064457        0.86963624799257       -2.10018759890664
H            1.15484245432430       -1.56502644629571       -1.22577534955210
H           -0.65530706187271       -1.66352747438507        1.23801535304256
H            1.15484245432430       -1.56502644629571        1.22577534955210
H           -0.65530706187271       -1.66352747438507       -1.23801535304256
