9

C           -0.86977787716419       -1.24014048947085        0.04313052949761
S           -0.65405463694877        0.37547157704716       -0.60896118849238
O           -1.58554102207088        1.34685114614674        0.09552597244530
C            1.06528105314784        0.69806481910159        0.00707099018068
H           -1.84687939316173       -1.46071001396607        0.45118974806579
H           -0.23057546290794       -2.03100500649941       -0.33038260225940
H            1.74228913279901       -0.05666147993747       -0.39220801856399
H            1.33525122564521        1.68656584731354       -0.36013567603837
H            1.04400698066147        0.68156360026479        1.09477024516478
