5

P            0.82622977989131        0.00033303047029       -0.42274655019677
H            0.85541125718664        1.03491348026572        0.54066818820384
H            0.87146226034779       -1.02481356128205        0.55012458496270
H           -0.65761539929475       -0.01070697989322       -0.46212368481459
H           -1.89548789813098        0.00027403043925       -0.20592253815518
