16

C           -1.96898700861187        0.08757500038303        0.17877500078192
H           -2.89687301267022        0.29401700128596       -0.35294100154368
O           -1.67345700731929       -1.28469800561896       -0.08046800035195
C           -0.87966900384746        1.04737100458095       -0.28822100126061
H           -0.79251400346626        0.98681600431609       -1.37596500601813
H           -1.21940300533337        2.05953400900790       -0.05635700024649
C            0.48911400213927        0.79558200347968        0.36095100157871
H            0.36481700159562        0.37593900164427        1.36348700596356
H            1.03155300451176        1.73308900758011        0.48639400212737
H           -1.04679600457843       -1.57609600689346        0.58649900256521
H           -2.15767900943716        0.24001200104975        1.24621400545064
C            1.36561500597287       -0.13973700061118       -0.45598400199436
H            0.84371800369022       -1.07820700471581       -0.65579600286829
H            1.58557000693490        0.32867000143752       -1.42117400621587
O            2.56327601121115       -0.36258300158585        0.28617900125168
H            3.13261301370129       -0.93027600406880       -0.23917500104609
