18

C            0.00000000000000        0.00000000000000       -0.67413603922413
C            0.00000000000000        0.00000000000000        0.67413603922413
C            1.25072413352002       -0.02482231153004       -1.52978376700340
C           -1.25072413352002        0.02482231153004       -1.52978376700340
C            1.25072413352002        0.02482231153004        1.52978376700340
C           -1.25072413352002       -0.02482231153004        1.52978376700340
H            2.17050186552669       -0.19935914632955       -0.97230021976897
H            1.35617444617782        0.91899811062174       -2.08212357625646
H            1.16375117595814       -0.81637338400886       -2.28567611132529
H           -2.17050186552669        0.19935914632955       -0.97230021976897
H           -1.16375117595814        0.81637338400886       -2.28567611132529
H           -1.35617444617782       -0.91899811062174       -2.08212357625646
H            2.17050186552669        0.19935914632955        0.97230021976897
H            1.35617444617782       -0.91899811062174        2.08212357625646
H            1.16375117595814        0.81637338400886        2.28567611132529
H           -2.17050186552669       -0.19935914632955        0.97230021976897
H           -1.16375117595814       -0.81637338400886        2.28567611132529
H           -1.35617444617782        0.91899811062174        2.08212357625646
