26

C           -2.99721447964151       -0.66535287592709       -0.39793020263365
C           -1.58782057948842       -0.93957885621515        0.15105575860366
C           -0.51409665591852       -0.11679191489989       -0.57398919005270
C            0.89701324421878       -0.23388090632421        0.01690776821647
C            1.48485920217373        1.16427599407355       -0.21212021544806
O            2.53195912804127        1.42571697568629        0.71787771816943
C            0.25105828963764        2.05579193072199       -0.02531122900252
O           -3.48778144483400        0.59518303452313        0.05886376489082
O            1.57153519604713       -1.29378883102536       -0.63476618546153
O           -1.56702158089919       -0.72049287195214        1.55783865870986
O           -0.84799063228863        1.29639198471751       -0.55162919171776
C            2.71685811496202       -1.78265379667511        0.06072676501244
H           -3.69439942979646       -1.41502582246825       -0.01401422954748
H           -2.99728847925351       -0.72221387160263       -1.49599412468308
H           -1.33979259707687       -1.99615478115297       -0.01626722956930
H           -0.48025965797108       -0.43980789168468       -1.62398511546678
H            0.84319724798789       -0.41576189347998        1.09969569094309
H            1.85897617541609        1.22228699025535       -1.24395814243425
H            2.98927409540119        2.23914991762053        0.46837073572524
H            0.30095228632403        3.00308586378308       -0.57195219011400
H            0.10342830010355        2.26167291629504        1.04376169520536
H           -2.85555848964785        1.26944098672026       -0.24341921334484
H           -2.21449753524986       -0.01895092165166        1.73582964619624
H            3.49862305949689       -1.01895685075398        0.14202175903220
H            2.44665713379997       -2.12293877216549        1.07021469299627
H            3.08933008845573       -2.63064573641816       -0.51782819422516
