12

C            1.20758523172208        0.00000000000000        0.69686788530957
H            2.14346752504412        0.00000000000000        1.23840170894047
C            1.20758523172208        0.00000000000000       -0.69686788530957
H            2.14346752504412        0.00000000000000       -1.23840170894047
C            0.00000000000000        0.00000000000000       -1.39475232846651
H            0.00000000000000        0.00000000000000       -2.47589554910867
C           -1.20758523172208        0.00000000000000       -0.69686788530957
H           -2.14346752504412        0.00000000000000       -1.23840170894047
C           -1.20758523172208        0.00000000000000        0.69686788530957
H           -2.14346752504412        0.00000000000000        1.23840170894047
C            0.00000000000000        0.00000000000000        1.39475232846651
H            0.00000000000000        0.00000000000000        2.47589554910867
