16

B            0.36191436090873        0.11472247106529       -1.48932230914996
P           -1.41395906270551       -2.10477022000259        0.01850818535884
H            1.07065920038035       -0.08492273439168       -0.22215181081414
H            2.25548210725100        1.93353394941676       -1.49141617288641
B           -1.48369812265764        0.97790149375922        0.07994441246976
P            0.83777792264432        1.99542037588532       -1.51466476744332
H            1.39528249760040        1.65707662677599        1.18609746724049
Cl          -3.31853661654580       -2.07686716591857        0.86024460220395
N           -0.48998819476017       -1.55816908731943        1.37912300349090
H           -0.95004424160279       -0.82997038998091        1.93422573052562
P           -1.59526097982018       -0.25267249626999       -1.29560631561334
Si           1.15492634813604       -1.18273771470295        0.94048082916660
H            1.72547833886871       -2.40287866972063        0.30271227794380
H            0.91941879833410       -0.62789200060486       -2.24404701733527
P            0.49957148643107        2.64337665943616        0.62708180782085
N           -0.96902384246260        1.79884890257290        0.92879007702165
