7

Pb           0.00000000000000        0.00000000000000        1.38446747330939
H            0.00000000000000        1.40251790059384        0.38348254414145
H            0.00000000000000       -1.40251790059384        0.38348254414145
H            1.40666489993830        0.00000000000000        2.37801440243231
H           -1.40666489993830        0.00000000000000        2.37801440243231
H            0.00000000000000        0.00000000000000       -4.16111313303635
Br           0.00000000000000        0.00000000000000       -2.74634823342054
