14

P           -0.68936545796514        1.71916187309965        0.60819421878358
P           -2.00484331625709        0.69600958529094       -0.88997102417137
P           -2.13712034024306       -1.41228715767006       -0.25124587135690
P           -0.24325712183230       -1.73109320735388        0.91328664077876
P            1.14923919118983       -1.39271709648151       -0.80646168805033
P            2.39478319780041        0.27126692161906       -0.00721071092763
P            1.11631671280941        1.94426303020632       -0.69720407411776
H           -1.19153350679507        3.01092779101785        0.27862670012007
H           -1.02557800932459        0.45449408667981       -1.88930550286655
H           -2.93631074613747       -1.10363532705526        0.88277526016979
H           -0.24435157142988       -3.14367805205930        0.71944818409748
H            2.05312048175733       -2.39736362405044       -0.36920281854920
H            1.98893820954316        0.20427599346710        1.35411307985285
H            1.76996227688451        2.88037518328971        0.15415760623719
