5

C            0.00000000000000        0.00000000000000        0.00000000000000
H            0.62850991531594       -0.62850991531594        0.62850991531594
H           -0.62850991531594        0.62850991531594        0.62850991531594
H           -0.62850991531594       -0.62850991531594       -0.62850991531594
H            0.62850991531594        0.62850991531594       -0.62850991531594
