34

C           -2.53016958324414       -0.40086646756151       -2.29120778634723
H           -2.55967273572408       -0.96608107569131       -3.22267033325653
H           -2.55382296053392       -1.11715604379408       -1.46985637686097
H           -3.43600019155190        0.20085257478300       -2.23574288927329
C           -1.27594363001187        0.46034372993570       -2.22248938355429
H           -1.27787063411715        1.04192661206935       -1.29742880825473
H           -1.28012578894857        1.18526439179888       -3.03967221967038
C            0.00241781428748       -0.36400734015012       -2.29352164862760
H            0.00804204885858       -1.09470412737761       -1.47868304903462
H            0.00646177383296       -0.94381379925809       -3.22133460477867
C            1.26854649601937        0.47910514384541       -2.22314509232809
H            1.26223287742430        1.06095904250009       -1.29826783883135
H            1.26184790682432        1.20376585534140       -3.04054874456910
C            2.53517920422769       -0.36371583547502       -2.29182785238999
H            2.57265317152770       -0.92900762145515       -3.22296601155230
H            3.43219403664976        0.25112372876785       -2.23693650033185
H            2.56942064385059       -1.07910112140979       -1.47005818811554
C           -0.00030809182817        0.08068011908092        2.26879179175608
C            0.00076365130625       -0.05945097586977        3.78852463747563
H           -0.88627231076295        0.40462503312129        4.22189402012333
H            0.01001515276576       -1.11023114826054        4.08153448572082
H            0.87942381182740        0.42021355180461        4.22216767618030
C           -1.23976334065183       -0.60097186329760        1.69489332156489
H           -1.26306255286378       -0.51201474575033        0.60806421376890
H           -1.25184896867085       -1.66224818311501        1.94790650467682
H           -2.15070699675742       -0.14868063767268        2.08997841314130
C            1.25229693128090       -0.57686064135576        1.69532149419237
H            1.27362371587414       -0.48857498248363        0.60835061241310
H            1.28542746283482       -1.63742140616106        1.94941379558151
H            2.15410910120171       -0.10621736272795        2.08974258849232
C           -0.01455596544817        1.56047250516633        1.89417054226566
H            0.86320996919655        2.07105948675542        2.29312564490066
H           -0.01508016680576        1.68692742203847        0.81051893036274
H           -0.90266185186972        2.05380618185836        2.29195865516005
