6

O            0.16408740071768        1.07715220471120        0.00000000000000
C            0.13190970057694       -0.33100360144773        0.00000000000000
H            1.16121460507887       -0.67588750295617        0.00000000000000
H           -0.36056420157702       -0.73555060321712        0.88585820387453
H           -0.36056420157702       -0.73555060321712       -0.88585820387453
H           -0.73608330321945        1.40084020612693        0.00000000000000
