23

C            0.84932440202412        1.08206965285135       -2.06213458841825
H            1.51065315793102        1.92737268284510       -1.92820714692149
C            1.37975647624933       -0.19330428551979       -2.25042854136949
H            2.45143075413273       -0.33732151502952       -2.25873715064119
C            0.52831532346156       -1.28289318582330       -2.42839713778054
H            0.93997445325014       -2.27187520583711       -2.57666640407767
C           -0.85346841439329       -1.09731229003585       -2.41520537857522
H           -1.51413382232417       -1.94230687745032       -2.55322620265224
C           -1.38379833783725        0.17778541042271       -2.22397598332484
H           -2.45547009048699        0.32156688619322       -2.21155718586301
C           -0.53236585085548        1.26757315594253       -2.04885067035576
H           -0.94467693808062        2.25695715642859       -1.90422315399813
N            0.02736455939773        0.37617556713143        4.01295472501644
C            0.18204836790924        1.31413710552949        3.06807791205571
H            0.32381918512426        2.32666303882277        3.42597961283039
C            0.16783910200020        1.04684735945507        1.70157857103683
H            0.29807915096467        1.84787310084605        0.98769320985997
C           -0.01649919573592       -0.26478223263613        1.27628817020617
H           -0.03306564766359       -0.50790088195484        0.22294031198157
C           -0.17834811025068       -1.24981649540470        2.24514719064636
H           -0.32489112058008       -2.28502738999554        1.97037569585936
C           -0.14914563943704       -0.88248342054475        3.58823660129298
H           -0.27274176479987       -1.62999733623649        4.36233754319207
