4

P            0.02982900012102       -1.91988300835324        0.00000000000000
H            0.30977400130803       -3.30863501442878        0.00000000000000
H           -0.92957600406399       -2.00108300871351        1.03745800449987
H           -0.92957600406399       -2.00108300871351       -1.03745800449987
