5

O            0.00000000000000        0.00000000000000       -1.09990792206330
P            0.00000000000000        0.00000000000000        0.38309997283094
H            0.00000000000000        1.26185291028823        1.01758592790066
H            1.09279692231316       -0.63092695521658        1.01758592790066
H           -1.09279692231316       -0.63092695521658        1.01758592790066
