20

C           -0.77133366593414       -0.87377917173403       -1.51753965734373
H           -0.38245754535471       -1.90345832420424       -1.52455656123644
H           -0.38376375220016       -0.36229916110860       -2.41210614085443
H           -1.86684483997573       -0.92684483336271       -1.60881463642814
C           -0.35777534141398       -0.13396420702278       -0.23209588776686
C            1.19206740343787       -0.10394006052832       -0.17590231912403
H            1.55540987500259        0.37798753317678       -1.10006556561075
H            1.55322908396292       -1.14630469100917       -0.21767012805235
C            1.82671072385071        0.59388063561349        1.03095504189069
H            1.54159474911748        0.11712177460078        1.97963454356191
H            1.54262532692166        1.65434521436429        1.09013862200999
C           -0.93003957145801        1.29455746494290       -0.27368441870585
H           -0.70211771866227        1.85467319447095        0.64460905101509
H           -0.52187626649501        1.86052553728185       -1.12548551137652
H           -2.02498710609909        1.27115021760493       -0.38144463424549
C           -0.93330747140369       -0.88523456646978        0.98199100620611
H           -2.02870534781066       -0.96045025780630        0.90884410110749
H           -0.53088313806134       -1.90825520756310        1.04208242258678
H           -0.70102293546959       -0.37433022079698        1.92741147842340
H            2.92347753804517        0.55461912955006        0.96369919394313
