6

P            0.18598300077509       -0.63631200274670       -0.20357800084775
H           -0.04125300014872       -1.02669800444744        1.13120500492068
C           -0.38588200168237        1.05081400459490       -0.01517800004260
C            1.93721900846097       -0.26981700112889        0.04619600018364
N           -0.81471200352338        2.11601600925274        0.01174400004893
N            3.07635901343517       -0.13611600059329        0.11517000049079
