16

B           -2.30573805811094        0.47783584342073        0.43826050803089
C            0.14995406848606        0.87411355803524       -0.40286324932979
Cl           0.21431669960683       -1.17243677091015       -3.26237744738349
P            2.19949792091395       -1.16141761611256       -2.61608912190774
H           -0.38591972364318       -0.60115437562771        0.77080308165302
B           -2.49051833246481        1.20046510970889        1.99110935331523
F           -2.89868130205569       -0.80666080016967        0.35128693739881
H            3.28887480602405        1.20587922927759       -0.42531734872791
O           -2.58002943983155        1.74073565354262        3.08019998529821
Al           2.04640230729425       -2.42994719769867       -0.69624844594879
Al           2.04687675641548        0.22614383036180       -0.42742584626738
H           -2.62721708394147        1.23795455884686       -0.45196748527116
N           -0.73882733281086        0.22191611461694        0.26814839193910
N            2.10674330838004       -1.33973696819425        0.65901205800642
H           -0.26991518433942        1.73250580092162       -0.93826651521566
H            2.24418059007728       -1.40619597001929        1.66173514441023
