9

C            0.00000000000000        0.47170800206314        0.00000000000000
H           -0.27641200120896        1.52231100665822        0.00000000000000
C           -1.13432900496128       -0.50442900220625        0.00000000000000
H           -0.77670000339710       -1.53419000671018        0.00000000000000
H           -1.77247000775236       -0.36382400159128        0.87633600383288
H           -1.77247000775236       -0.36382400159128       -0.87633600383288
C            1.28794700563317        0.15146600066248        0.00000000000000
H            2.06050500901215        0.90856700397385        0.00000000000000
H            1.61583900706728       -0.88151600385554        0.00000000000000
