29

C            1.41285705258319        0.86126053234083       -2.01884567043612
H            0.99284238450031        1.86283264606718       -1.95655311096608
H            1.98808777773302        0.77529877106570       -2.93895253213770
H            2.09236815753651        0.70060834838429       -1.18671794594067
C            0.36740325572847       -0.22886402441936       -2.00147159089504
O            0.65948745132102       -1.40369797420450       -1.81838911111534
N           -0.90936255629342        0.19367001350128       -2.21575542585093
H           -1.06400526361097        1.17080864218531       -2.38355816872919
C           -2.01918803347533       -0.72858566698789       -2.30951684381069
H           -1.62868967850963       -1.71801265253880       -2.09248609757894
H           -2.79392533848775       -0.48259706052072       -1.58600899037790
H           -2.45030410706173       -0.73014154694409       -3.30960952093320
C            2.70133154593817        0.31152860110203        1.86367582059404
H            2.81817082181173        1.06594444233212        1.08493105180085
H            2.61522118111868        0.83641488704425        2.81533181008893
H            3.61342292338378       -0.28271326462100        1.89048382802960
C            1.47305940863775       -0.55185884840349        1.60612428883557
H            1.37849006196277       -1.29731279786558        2.39917506771550
H            1.58947953012185       -1.10532313742054        0.67228055242935
C            0.19052165333905        0.26675504111487        1.54082294257578
H            0.07895134256593        0.84448988309854        2.46390652134060
H            0.26975579581569        0.99956989717140        0.73117034685517
C           -1.05383454693960       -0.58358013236047        1.32394306000427
H           -1.14463650589250       -1.29806656846834        2.14536022663829
H           -0.92602755001378       -1.17251782047310        0.41372867147986
C           -2.32067295215075        0.25671131427386        1.23382834032011
H           -2.25375972099383        0.96376224593644        0.40605916593026
H           -3.20601510634044       -0.35930613335168        1.07999544453031
H           -2.47102898432820        0.83292236296152        2.14704786960329
