12

Si          -1.34186187902660       -0.82062967183905       -0.33834600190396
C            0.53666218083242       -0.80190316835177       -0.17840674550777
C            1.17547431164423        0.49225633348181        0.22678663230196
H            0.96524021687998       -1.12997471415840       -1.13340464679030
H            0.82939142981892       -1.58454091972423        0.53244099075435
C            0.55513391667481        1.63087295707399        0.50440720117633
H            2.26089608820925        0.47405186438007        0.29591082917512
H           -0.52321642030616        1.74328271103652        0.46100223485874
H            1.10940739712095        2.51615402330686        0.78840229056804
H           -1.80205554024349        0.14192206755461       -1.35769922458051
H           -1.99371645646084       -0.48851481782312        0.94309361702718
H           -1.77135524509056       -2.17297666483144       -0.74418717707918
