13

C           -1.29962060422676       -0.75666788869222        0.01298434795327
C           -1.20594565435245        0.65400531165602        0.01972532477210
C            0.00000158334991        1.33155005389065        0.18644038252327
C            1.20594882105227        0.65400213659276        0.01971733419622
C            1.29962906269869       -0.75666259692011        0.01299233852916
H            2.16879733983721       -1.17936406121851       -0.48255761857804
H            1.03204531423272       -1.30619725512810        0.90630818890883
H            2.03713275799206        1.23377398063183       -0.36536497509670
H            0.00000258335196        2.41110331476847        0.11904437294248
H           -2.03712959129224        1.23377398063183       -0.36534169129943
H           -2.16879417313739       -1.17935347767429       -0.48257666895763
H           -0.00000941665677       -1.03375565986603       -0.48766894125816
H           -1.03205802284923       -1.30620783867232        0.90629760536462
