4

N           -1.19385714819026        0.00000000000000        0.07888345250555
H           -1.46006916507766        0.80862394242812       -0.47569468680577
H           -1.46006916507766       -0.80862394295730       -0.47569468627659
Cl           0.55468384457591        0.00000000000000       -0.00411788877691
