14

C           -0.26285998141650        0.40275197134869        0.43359696906586
C            0.77683094490470        1.33861590472963       -0.14462398992071
C            1.17464891662322        0.13002999101224        0.04405399698685
C           -1.37785890192050       -0.10239099278943       -0.39262997231889
C            2.18589484485731       -0.93727093356226       -0.01629999903091
C           -2.57175481763323       -0.45763796760427        0.07170499483210
H            0.95876893185456        2.34389783381422       -0.47803096609115
H           -1.17309991649994       -0.17761298720862       -1.45758889667318
H            2.38272483104100       -1.33128290561433        0.98341093018083
H            1.82157987083520       -1.77127187447456       -0.61971295614872
H           -2.80829680071546       -0.39196797215722        1.12708492000543
H           -3.35120076210619       -0.82231194179639       -0.58255295868395
H            3.12284377832015       -0.57830995918496       -0.44187996880644
H           -0.50272996421152        0.48426796564704        1.49444989366765
