30

N            0.17587859403968        2.64192565972144       -0.74008019226543
N           -1.70113507877945        1.95307392282707        0.29442610907973
N           -1.52213234930720        0.06730897272297        2.67581663687942
N            0.78234035776164        0.16500939545367        2.35762174852855
N            1.83755520973859        1.45928795112213        0.60589210866332
N            1.17203806745424       -0.41281377641036       -2.11223925222013
N           -1.09911478852821       -0.40330145198067       -1.80637075067990
H           -1.34229818801220       -0.72439474446869        3.27043043404444
H           -2.39529687675966        0.05626337257055        2.17303429528790
H            2.80261099529627        0.31392713818577        2.01149049860216
H            0.75758463294655        3.06489105099229       -1.44477890615219
H            2.32245470186311       -1.63199285053641       -0.88120628175025
H            0.07234766891309       -2.34052151284913        1.66430034013428
H           -0.26359202788154       -3.64195657219679        0.52962167557139
H            1.40782178679867       -3.12219182558729        0.81703787885373
H           -1.76286365574250        3.25811605892925       -1.39041916182028
H           -2.00482911484700       -0.01508636249079       -2.03290488562056
H            1.98190666171696       -0.04093195375077       -2.57978680005370
C            0.25417480635193       -1.78886473213927       -0.38738586681503
C            0.37870645028081       -2.78286443838273        0.71779406348994
C           -0.59314852986859        1.40652180547809        0.89586297769117
C            0.59179592891753        1.81307190645678        0.27207021318093
C            1.83181252654044        0.64237363453147        1.66247447043189
C           -1.07189429101370       -1.29472587503097       -0.72830767278438
C           -0.44955959171097        0.52655679023570        1.98290665476344
C            1.30963082402376       -1.31859970175183       -1.08939529617710
C           -0.03495266876975        0.11590948249675       -2.51070478267233
C           -1.18828017406191        2.68083263172412       -0.68548924932728
O           -0.14321039499215        0.95778650658379       -3.38743740168458
O           -2.10635148236842       -1.60461048245611       -0.15427360517916
