34

C            0.00000000000000        0.00000000000000       -2.62815416729385
C            1.24606733797230        0.71941731300670       -2.11965878544989
H            1.26687103711940        1.75358972861982       -2.47015446447359
H            1.27139926397231        0.73404270730191       -1.02911198958420
H            2.15208877135992        0.22034763715423       -2.47015446447359
C           -1.24606733797230        0.71941731300670       -2.11965878544989
H           -2.15208877135992        0.22034763715423       -2.47015446447359
H           -1.27139926397231        0.73404270730191       -1.02911198958420
H           -1.26687103711940        1.75358972861982       -2.47015446447359
C            0.00000000000000       -1.43883462601341       -2.11965878544989
H           -0.88521773424052       -1.97393736577405       -2.47015446447359
H            0.00000000000000       -1.46808541460382       -1.02911198958420
H            0.88521773424052       -1.97393736577405       -2.47015446447359
C            0.00000000000000        0.00000000000000       -4.15454337141931
H            0.88201001728880       -0.50922872090964       -4.54270632903741
H           -0.88201001728880       -0.50922872090964       -4.54270632903741
H            0.00000000000000        1.01845744181927       -4.54270632903741
C            0.00000000000000        0.00000000000000        2.62815416729385
C           -1.24606733797230       -0.71941731300670        2.11965878544989
H           -1.27139926397231       -0.73404270730191        1.02911198958420
H           -1.26687103711940       -1.75358972861982        2.47015446447359
H           -2.15208877135992       -0.22034763715423        2.47015446447359
C            1.24606733797230       -0.71941731300670        2.11965878544989
H            2.15208877135992       -0.22034763715423        2.47015446447359
H            1.26687103711940       -1.75358972861982        2.47015446447359
H            1.27139926397231       -0.73404270730191        1.02911198958420
C            0.00000000000000        0.00000000000000        4.15454337141931
H            0.88201001728880        0.50922872090964        4.54270632903741
H            0.00000000000000       -1.01845744181927        4.54270632903741
H           -0.88201001728880        0.50922872090964        4.54270632903741
C            0.00000000000000        1.43883462601341        2.11965878544989
H           -0.88521773424052        1.97393736577405        2.47015446447359
H            0.88521773424052        1.97393736577405        2.47015446447359
H            0.00000000000000        1.46808541460382        1.02911198958420
