23

C            0.00000000000000        0.00000000000000        0.51682943429102
C            0.00000000000000        1.27525836363406       -0.32328680526098
C            0.00000000000000       -1.27525836363406       -0.32328680526098
C            0.00000000000000        2.55137972756153        0.51534943384886
C            0.00000000000000       -2.55137972756153        0.51534943384886
C            0.00000000000000        3.81878508895010       -0.33535580870166
C            0.00000000000000       -3.81878508895010       -0.33535580870166
H           -0.87886466194437        0.00000000000000        1.17586479485546
H            0.87886466194437        0.00000000000000        1.17586479485546
H           -0.87879063001906        1.27565336372972       -0.98252582055150
H            0.87879063001906        1.27565336372972       -0.98252582055150
H           -0.87879063001906       -1.27565336372972       -0.98252582055150
H            0.87879063001906       -1.27565336372972       -0.98252582055150
H           -0.87802465940264        2.54927672694772        1.17342079493109
H            0.87802465940264        2.54927672694772        1.17342079493109
H           -0.87802465940264       -2.54927672694772        1.17342079493109
H            0.87802465940264       -2.54927672694772        1.17342079493109
H           -0.88405063429417        3.85521609935053       -0.97954982462848
H            0.88405063429417        3.85521609935053       -0.97954982462848
H            0.00000000000000        4.71902034570811        0.28632336861058
H           -0.88405063429417       -3.85521609935053       -0.97954982462848
H            0.88405063429417       -3.85521609935053       -0.97954982462848
H            0.00000000000000       -4.71902034570811        0.28632336861058
