20

C            0.77384808843330        1.21229769819695       -1.43197422139334
H            1.41356154068968        2.08414013162413       -1.41805641941275
C            1.28514775001472       -0.03087519939521       -1.06329223360532
H            2.31712054680912       -0.12201083791775       -0.75465053870514
C            0.45996544042835       -1.15421134972037       -1.07930148733042
H            0.85555998254760       -2.11908539905714       -0.79303080294294
C           -0.87576848953835       -1.03483511310020       -1.46021909048024
H           -1.51564626825238       -1.90661217514981       -1.46905969853573
C           -1.38652509623651        0.20922490881022       -1.82835187222909
H           -2.42217159204451        0.30216499611270       -2.12575487506522
C           -0.56097841321473        1.33271899789492       -1.81525704029678
H           -0.95656053977826        2.29753442339273       -2.10227011586027
C            0.58605002268381       -0.38980287476734        2.27656797352796
O            1.78154261156558       -0.22585214033897        2.35308374484326
O            0.00654839187477       -1.60120774988373        2.47600631598920
H            0.74099919769128       -2.20231620110343        2.66904441725018
C           -0.43583413282463        0.65412856815338        1.95588681602863
H            0.04246025291952        1.62507485137129        1.90906404851370
H           -0.88863420255530        0.42093239635969        0.99317883718572
H           -1.22068509121306        0.64859206851796        2.70838624251860
