6

Ne          -2.21386412598546        0.00000000000000       -0.00000000000000
Ne           2.21386412598546       -0.00000000000000        0.00000000000000
Ne           0.00000000000000       -0.00000000000000       -2.21386412598546
Ne          -0.00000000000000       -0.00000000000000        2.21386412598546
Ne           0.00000000000000        2.21386412598546        0.00000000000000
Ne          -0.00000000000000       -2.21386412598546        0.00000000000000
