16

C            0.48462426319941       -0.55755490899691        1.43729140986975
C            0.48462426319941       -0.55755490899691       -1.43729140986975
C           -0.27595795369442       -1.44977516342972        0.70359020064153
C           -0.27595795369442       -1.44977516342972       -0.70359020064153
C           -0.27595795369442        1.45086366374012        0.69299919762131
C           -0.27595795369442        1.45086366374012       -0.69299919762131
H            0.37292523134640       -0.50748989471996        2.51767671796124
H            1.44526253714286       -0.21636381170007        1.06867430475189
H            0.37292523134640       -0.50748989471996       -2.51767671796124
H            1.44526253714286       -0.21636381170007       -1.06867430475189
H           -1.05536217595569       -2.01444032445424        1.21328934599149
H           -1.05536217595569       -2.01444032445424       -1.21328934599149
H            0.51071927064088        1.96707981094853        1.23581335241462
H           -1.20625321898501        1.32768062861225        1.23591735244428
H            0.51071927064088        1.96707981094853       -1.23581335241462
H           -1.20625321898501        1.32768062861225       -1.23591735244428
