16

C           -1.85174900809910       -0.60505900264638       -0.39569700173068
H           -1.79874300786726       -1.35126100591009       -1.18864800519886
O           -1.85174900809910       -1.34999800590456        0.82204500359543
C           -0.67474200295116        0.35668500156006       -0.49479900216413
H           -0.78034000341302        0.94863200414908       -1.40895800616244
H           -0.71169400311278        1.06083700463984        0.34009700148750
C            0.67474200295116       -0.35668500156006       -0.49479900216413
H            0.78034000341302       -0.94863200414908       -1.40895800616244
H            0.71169400311278       -1.06083700463984        0.34009700148750
H           -1.97442600863566       -0.72071500315223        1.53828500672808
H           -2.79417301222104       -0.06228600027243       -0.51416600224884
C            1.85174900809910        0.60505900264638       -0.39569700173068
H            2.79417301222104        0.06228600027243       -0.51416600224884
H            1.79874300786726        1.35126100591009       -1.18864800519886
O            1.85174900809910        1.34999800590456        0.82204500359543
H            1.97442600863566        0.72071500315223        1.53828500672808
