26

C            2.34471644877476       -0.03667099713807        0.86868409226338
C            1.27996152435197       -0.99334492964409        0.33476913027245
C            0.20101660083321       -0.30558297828670       -0.51316980972704
C           -0.84838132416944        0.50730896408857        0.28420113380196
C           -2.07028023741211       -0.42282196975404        0.31925413123740
O           -1.89926624983499       -1.27144390978364        1.45644005040419
C           -1.93443524714848       -1.16473791711472       -1.00845777437218
O            3.04321139934074        0.63263895498742       -0.17552383357896
O           -1.23935729649369        1.69560187952415       -0.38799181863190
O            1.98440047434393       -1.94630686181916       -0.46779181294604
O           -0.52996234685819       -1.35081490383714       -1.20136876091697
C           -0.30962436265234        2.76591080347272       -0.26106582767743
H            1.89277448116739        0.74037194727004        1.49209304801173
H            3.03972839938945       -0.61203095635882        1.49647404740214
H            0.79498955880639       -1.49958889353709        1.18228806972812
H            0.67761256744763        0.32941497637249       -1.26743775598105
H           -0.51967134767760        0.73501994791509        1.30735706090137
H           -2.99721217171652        0.15792998879785        0.38991312634803
H           -2.58572820117228       -1.95094986160928        1.45425705047301
H           -2.41324821332988       -2.14980484758005       -1.01335777436655
H           -2.35531821724540       -0.55659096024772       -1.82186571691662
H            3.36282437665580       -0.05460599605587       -0.77925779065126
H            1.32059952157256       -2.42276382786806       -0.98952677610004
H           -0.19307437102631        3.05890378260678        0.79287609758438
H            0.67658156725421        2.50895282174532       -0.66919379868429
H           -0.72285733320083        3.60600574385402       -0.82259778787781
