7

C           -1.08464387670616        0.00687335906593        0.00017656405298
P            0.68757058924881        0.00561983659762       -0.00105770863110
H           -1.62294019918552       -0.01451925140132       -0.93854913556175
H            1.20488860122125        0.81252377998648        1.02965442089843
H           -1.61987368141373       -0.01476879568704        0.94096310275672
H            1.24238575711226       -1.27960375559134        0.19130659537956
H            1.19261280972311        0.48387482702968       -1.22249383889486
