42

C            1.02736195247040        1.58365472704057       -0.23122212179018
C            1.05374719683728        0.26880976453344       -0.46209496797891
C           -0.15703264269548       -0.38365114200964       -0.46655581111490
C           -1.32343165358864        0.23658237971939       -0.27189360367580
C           -1.27369485620438        1.59277325417035       -0.04679484027378
C           -0.13385271075471        2.28760477510869       -0.01122268547374
C            2.10843174804791        2.38664756101719       -0.16636808694793
C            3.34133032341228        1.73986673289791       -0.38342971979393
C            3.35708991889301        0.25339123598110       -0.66808497295936
C            2.17268326672489       -0.53337889910091       -0.71711263087534
C           -0.00552425774556       -1.69619702587415       -0.73493328393406
C           -1.20758248904400       -2.42773506433811       -0.80472802320995
C           -2.52239398609460       -1.71990136740216       -0.55656413073930
C           -2.60425844102311       -0.32926183538788       -0.27124780426657
C            0.02747508405359        3.65433588594051        0.24651505155354
C           -1.24008280603641        4.25662070447048        0.48230583094650
C           -2.53799815043610        3.47827201599149        0.44724460404415
C           -2.50623025507667        2.09898168154705        0.16193304716075
C            1.66997689401138        3.73311283335632        0.12804208817045
C            1.40022266493438       -1.97166049618108       -0.93177639852342
C           -3.47251784403060        1.02799648832135        0.06275396284741
C            4.38878743597652        2.70303411840567       -0.27958821272093
C            4.06859920052840        4.03292767912671       -0.00110510334040
C            2.75392592061658        4.58295380290372        0.20682890694322
C           -3.89196517906486        3.86665461459469        0.67425327097918
C           -4.90209995881553        2.90470493102247        0.59732816175176
C           -4.74552435837473        1.50452914552162        0.30299154805364
C            1.58926726443550       -3.29917738735800       -1.25719657102505
C            0.43053897438439       -4.14958241540920       -1.34095137018308
C           -0.90061276322066       -3.77944346872326       -1.13924287266948
H            4.33589246342331       -0.17899766086031       -0.83554011806167
H           -3.40628635056783       -2.34245684130718       -0.61856895331298
H           -1.33476568325160        5.31037316346834        0.71402303166712
H            5.43054137320743        2.43681266186026       -0.40948178542588
H            4.89287082169117        4.73070137655515        0.07180550308529
H            2.67231539444990        5.64040654640702        0.42281305601115
H           -4.16625876121575        4.88604416740182        0.91653772645545
H           -5.91377694510417        3.24231074322268        0.78273408211143
H           -5.63129554318834        0.88298893099029        0.28728061796170
H            2.55860847940991       -3.73441184946379       -1.46354749844519
H            0.61561487187156       -5.18333088543651       -1.60322894064628
H           -1.67009563856654       -4.53290541188081       -1.25391002793353
