27

C           -0.37639340100233        0.44405457593607        2.08885746861683
C           -1.51679920300185        0.33872242364180        1.18597997026553
C           -1.44062443433577        0.66156902817108       -0.18126562984655
C            0.98704943368509        0.33318502554602       -0.70958085141526
C            1.53364569901207       -0.07064240846006        0.52256645348250
C            0.92809271175309        0.26776492478880        1.80525083415576
C            2.70339667312200       -0.84455197795907        0.51889756540402
C            3.29041218643745       -1.25731042993235       -0.66562073885726
C            2.71596415944183       -0.89678071782162       -1.88032391990672
C            1.57532573403025       -0.10410955355215       -1.89292428735011
C           -2.54976182107255        0.45601745924235       -0.99642856172982
C           -3.74107971800872       -0.03242851170203       -0.47774737611798
C           -3.83607581021521       -0.31408693064411        0.88116578966505
C           -2.73605807456840       -0.12288542028573        1.70021806268473
C           -0.18405325789282        1.27945218514732       -0.73023478282140
H           -0.63249338111325        0.57976004684438        3.13386610243137
H            1.61331505011850        0.27015748572890        2.64602823958859
H            3.14026818903853       -1.13719685020546        1.46594309442779
H            4.18969257963376       -1.85791871826792       -0.64377741180849
H            3.16526635914480       -1.21671646954372       -2.81129229922559
H            1.14376005386459        0.20517293395939       -2.83705930310479
H           -2.48304518494722        0.70762035887964       -2.04766773298374
H           -4.59498877299554       -0.17641937631546       -1.12616516635963
H           -4.76344368677142       -0.68236930479132        1.29921407592439
H           -2.80306763407949       -0.35365280349655        2.75603717708470
H            0.06758946811274        2.15461848487831       -0.12168080056993
H           -0.35989393910148        1.62997454135505       -1.74725596666976
