5

C           -0.53029096083208       -0.24024340975685        0.00000000000000
S            1.20579346917177       -0.29766028033409        0.00000000000000
H            1.43659026781215        1.03218534740726        0.00000000000000
H           -1.06678763794004        0.69292509556178        0.00000000000000
H           -1.04530513821181       -1.18720675287810        0.00000000000000
