29

N            1.54139037629458       -1.01165275299967        0.59892356541657
H            1.73590258112758       -1.28795072306303        1.54670739157782
C            0.26971269304117       -0.36319553099788        0.31285612595867
H            0.03140356685754       -0.59195904461691       -0.72553121524882
C           -0.79875509284387       -0.90640258988863        1.24489062150897
H           -0.53264839388345       -0.64130473806352        2.26996723206338
H           -0.81092757039157       -1.99434816492210        1.15895433489084
C           -2.18532099096165       -0.34732362374765        0.95924058237741
H           -2.90257164307931       -0.76801247139120        1.66445709301702
H           -2.17918655810026        0.73546086459255        1.07296234809431
S           -2.71020375591983       -0.77453335156638       -0.72575073233301
C           -4.30224287675710        0.07657139255641       -0.70979125966318
H           -4.76349531639225       -0.07639018026933       -1.68210113492632
H           -4.16379671300496        1.14305763601685       -0.54598512116871
H           -4.95240438921931       -0.33448834223334        0.05972323145828
C            0.42866982000964        1.15473530437527        0.46591134749394
O            0.05693948563872        1.75545964959546        1.47126526656104
N            1.03215746526118        1.73558456567795       -0.59272681616605
H            1.43856900807688        1.11077337216927       -1.27827851683817
C            2.51782737355108       -1.12201446973765       -0.33613614215481
O            2.38785522940069       -0.68277493959828       -1.47827009332629
C            3.77092831585282       -1.83532155179436        0.10334773754722
H            4.61908877680054       -1.17314801246908       -0.05189475972114
H            3.91051671435567       -2.70597063599184       -0.53303033948582
H            3.74431097514148       -2.15198512849774        1.14288001713150
C            1.39295549557805        3.13641792254631       -0.57629920350773
H            2.39786028501036        3.29376864300735       -0.18331804609601
H            1.33890768978090        3.53899692749858       -1.58398283939611
H            0.68921446190757        3.66040998506389        0.06288933863328
