9

C            0.14203257559795       -0.08979215672565       -1.04407594168886
H            0.18501461403817        0.94779278648025       -1.38785729245769
F            1.16576148008221       -0.80629566959180       -1.53650236831577
F           -1.01483897956043       -0.66360339474586       -1.34777146801621
C            0.38246880671239       -0.25523789963973        0.45282091405897
H            0.17226996451345       -1.20156719143900        0.95735162926350
F            1.29564252647858        0.45661218080771        0.96652401747640
F           -1.15732147582637        0.58625311710015        1.04495930623998
H           -1.17102951203593        1.02583822775395        1.89455120343968
