8

N            0.00000000000000        1.32257700578463        0.00000000000000
P            0.02982900013047       -1.91988300839710        0.00000000000000
F           -0.00657800002877        2.73742801197284        0.00000000000000
H            0.30977400135488       -3.30863501447116        0.00000000000000
H            0.58057300253929        1.10707500484208        0.80790400353357
H           -0.92957600406574       -2.00108300875225        1.03745800453759
H            0.58057300253929        1.10707500484208       -0.80790400353357
H           -0.92957600406574       -2.00108300875225       -1.03745800453759
