5

O            0.21923714806530        0.95151446726325        0.00000000000000
C           -0.31203869271931       -0.28547833174048        0.00000000000000
O            0.31458791606242       -1.30608449983159        0.00000000000000
H            1.18437052978999        0.85550555618448        0.00000000000000
H           -1.40615690119839       -0.21545719187567        0.00000000000000
