12

C            1.20726987510407        0.69701758737586        0.00000000000000
H            2.14386147263809        1.23775899833287        0.00000000000000
C            1.20726987510407       -0.69701758737586        0.00000000000000
H            2.14386147263809       -1.23775899833287        0.00000000000000
C            0.00000000000000       -1.39403517475172        0.00000000000000
H            0.00000000000000       -2.47551799666574        0.00000000000000
C           -1.20726987510407       -0.69701758737586        0.00000000000000
H           -2.14386147263809       -1.23775899833287        0.00000000000000
C           -1.20726987510407        0.69701758737586        0.00000000000000
H           -2.14386147263809        1.23775899833287        0.00000000000000
C            0.00000000000000        1.39403517475172        0.00000000000000
H            0.00000000000000        2.47551799666574        0.00000000000000
