4

N           -0.00000000000000        0.00000000000000       -0.27772962613500
H           -0.47271546569553       -0.81876720410824        0.09257654204500
H           -0.47271546569553        0.81876720410824        0.09257654204500
H            0.94543093139106        0.00000000000000        0.09257654204500
