16

N           -1.72425340125543        0.54265574344412        0.00000000000000
N            0.13319070677138        1.98319761467186        0.00000000000000
N            1.36643598417059       -1.35873712320298        0.00000000000000
N            2.19663865486743        0.70567924821952        0.00000000000000
N           -1.61285718126053       -1.79940930760714        0.00000000000000
C            2.44822804931555       -0.64126583631713        0.00000000000000
C            0.85698873524727        0.85408446108559        0.00000000000000
C           -1.02243932206190       -0.62026366878882        0.00000000000000
C           -1.13560430351153        1.78258209176202        0.00000000000000
C            0.36418603607424       -0.44305495441960        0.00000000000000
H            2.88012355023138        1.45076277090790        0.00000000000000
H           -2.61139701786856       -1.93117385420938        0.00000000000000
H           -1.03596783184159       -2.62883862527689        0.00000000000000
H           -1.82198818300819        2.62019936178098        0.00000000000000
H            3.45515110391869       -1.03242733614786        0.00000000000000
H           -2.73643557978880        0.51600941409781        0.00000000000000
