15

C           -0.64195995451122       -1.19003991567915       -0.60724995704364
N           -0.01115999917937        0.02343999822138        0.00133000013455
C           -0.62842995528705        1.35350990372414       -0.35475997461519
C           -2.03373985570101        1.55238988961388        0.21033998515517
H            0.05215999647557       -0.07553999446807        1.02517992727074
H            0.95867993218535        0.05574999605891       -0.34392997563631
H           -0.60877995652998       -1.06606992450011       -1.69338987978628
H           -0.03112999774600       -2.05635985414580       -0.33658997603568
H           -1.67027988123621       -1.31835990651841       -0.25800998178926
H           -2.38934983020722        2.55794981824199       -0.04656999649496
H           -2.75248980433328        0.83368994081956       -0.20184998557747
H           -2.04334985514135        1.46610989598108        1.30610990706166
H           -0.60161995708682        1.40646990025279       -1.44896989692089
H            0.07669999430691        2.10661985042917        0.01646999879745
Cl           2.55283981850489        0.15798998866038       -1.22586991300937
