5

C            0.00000000000000        0.00000000000000        0.00000000000000
Cl           1.03344579522386       -1.03344579522386        1.03344579522386
Cl          -1.03344579522386        1.03344579522386        1.03344579522386
Cl          -1.03344579522386       -1.03344579522386       -1.03344579522386
Cl           1.03344579522386        1.03344579522386       -1.03344579522386
