14

C           -1.79347791477443       -0.76585096445876        0.00000000000000
C           -0.33432447337150       -0.87148931530926        0.00000000000000
C            0.33432447337150        0.87148931530926        0.00000000000000
C            1.79347791477443        0.76585096445876        0.00000000000000
H           -2.12545315147342       -1.82853628182748        0.00000000000000
H           -2.21328714605715       -0.32344248216034       -0.90385054951486
H           -2.21328714605715       -0.32344248216034        0.90385054951486
H            0.14637146844618       -1.21529224423493       -0.91371706077370
H            0.14637146844618       -1.21529224423493        0.91371706077370
H           -0.14637146844618        1.21529224423493        0.91371706077370
H           -0.14637146844618        1.21529224423493       -0.91371706077370
H            2.21328714605715        0.32344248216034        0.90385054951486
H            2.12545315147342        1.82853628182748        0.00000000000000
H            2.21328714605715        0.32344248216034       -0.90385054951486
