5

P            0.00000000000000        0.00000000000000        0.00000000000000
H            0.80725855894266       -0.80725855894266        0.80725855894266
H           -0.80725855894266        0.80725855894266        0.80725855894266
H           -0.80725855894266       -0.80725855894266       -0.80725855894266
H            0.80725855894266        0.80725855894266       -0.80725855894266
