16

C            1.39889000611841       -0.05190200022701        0.57887400253185
H            0.84748300370668       -0.48825700213552        1.41000200616700
O            1.42537000623422       -1.07935400472083       -0.41963500183538
C            0.72199100315781        1.22746500536864        0.10063300044014
H            0.62639000273968        1.88850000825984        0.96642800422692
H            1.37779100602612        1.74148300761682       -0.60836600266085
C           -0.65773600287678        1.02444800448069       -0.54288100237443
H           -0.55544200242937        0.58457800255680       -1.53703800672263
H           -1.11319200486883        2.00703700877829       -0.68295500298708
H            1.86905000817477       -0.72885900318785       -1.19757800523791
H            2.41139701054686        0.16422300071827        0.92794700405861
C           -1.61285000705421        0.14687200064238        0.26534000116053
H           -1.52757700668125        0.39811400174126        1.33034200581859
H           -2.64038801154842        0.35619400155791       -0.03316100014504
O           -1.41246200617776       -1.24801200545850        0.07265000031775
H           -0.50054300218925       -1.38538500605934       -0.21153700092521
