6

C            0.00087039808498       -0.50561056840547        0.00000000000000
H           -1.05537685118291       -0.74805839935347        0.00000000000000
H            0.52074783757231       -0.77071247575229        0.91244968121840
H            0.52074783757231       -0.77071247575229       -0.91244968121840
H            0.01214037986833        0.79677551174376        0.00000000000000
O            0.00087039808498        1.99831840751976        0.00000000000000
