33

N            1.19811836963391        2.80857861897811        0.05112435980782
C           -0.10407353793379        2.50725264026552       -0.28683361604875
C           -0.21196253059983        1.17043173479838       -0.59774259399285
C            1.10407337619038        0.61539977469852       -0.44253060471111
C            1.63678133841014       -0.67600313401142       -0.61960259236076
C            2.98911524209329       -0.86995612022714       -0.39908660775812
C            3.83223618234066        0.19225080428324       -0.00235863631698
C            3.33110121803984        1.47098571381165        0.18214935055865
C            1.96268131511904        1.66856169963076       -0.03967363349106
H            1.53870634511595        3.72249555408260        0.28696134337575
H           -0.86206948419171        3.27401858593452       -0.28839861584500
H            1.02707738184796       -1.51103007439250       -0.93970556978109
H            4.88664010735398       -0.00654818150919        0.13424935392915
H            3.98197117161422        2.28471865583195        0.47498033002725
O            3.53414320386044       -2.12275003102493       -0.61697159259035
C            3.81736718379430       -2.81469998184791        0.59628532127091
H            2.90304924825375       -2.97453097061654        1.17300628035640
H            4.53282113258890       -2.26372602089411        1.21052927751253
H            4.24473815331096       -3.77397691377057        0.31653734133219
C           -1.45730044191895        0.42839778779898       -0.96815956758504
C           -1.96819040550767       -0.43835715073953        0.19451534989345
N           -3.15065532192450       -1.21300609585798       -0.13301162713044
C           -4.45472522914186       -0.80774512442815       -0.03202163418195
C           -4.70677221139738        0.48030678388152        0.72777331191818
H           -1.27119845527756       -0.21724116649397       -1.83071350636142
H           -2.24050638627095        1.12971473777033       -1.26342654660935
H           -2.18101739073062        0.19523480441243        1.05353928878620
H           -1.18183746174527       -1.12741510153731        0.50525432754183
H           -3.03352033018359       -2.04257203696221       -0.69389058688599
O           -5.36664516428385       -1.47194607749065       -0.50259960070004
H           -5.77282713531109        0.67933877010415        0.69666631433047
H           -4.16872324930018        1.31916272461653        0.28719734318238
H           -4.38859623384890        0.38465479090486        1.76595823852709
