6

C            0.68268426170137       -0.02476657129758        0.00000000000000
N           -0.70627942744303        0.08786474141451        0.00000000000000
H            1.18727733354130        0.19945084425708        0.92958315584024
H           -1.17547975067048       -0.23099992931554       -0.83522414332250
H            1.18727733354130        0.19945084425708       -0.92958315584024
H           -1.17547975067048       -0.23099992931554        0.83522414332250
