60

C           -0.12540050054847        4.28886331875845        0.39701030173643
C           -1.39795150611430        3.99378661746785       -0.10053810043973
C           -1.25168210547455        3.57491801563582       -1.49333500653148
C            0.84527250369702        4.05081101771727       -0.67586650295607
C            0.14795650064712        3.51873071539007       -1.81508200793873
C            1.94565630850983        3.36559981472031       -0.11991760052449
C            0.36018870157538        3.66893901604705        1.59953460699597
C            1.70378620745194        3.17261241387624        1.31901270576904
C           -0.52229500228439        2.85653351249378        2.33919141023105
C           -2.24721130982876        3.04613111332304        0.56216620245878
C           -1.84484000806888        2.54477971113025        1.80848540790988
C           -2.09080510914467        2.46163941076662       -1.71118760748432
C           -2.74023321198511        2.10198740919358       -0.44759640195768
C           -1.65452710723650        1.43364360627041       -2.56173231120439
C            0.66676810291628        2.33990511023417       -2.48598001087307
C           -0.27214890119031        1.37653540602063       -2.97013881299067
C            2.55599441117930        2.32163001015425       -0.85787020375211
C            1.94365070850105        1.82565160798496       -2.05577710899147
C            3.14968681377597        1.18819270519687       -0.18090420079123
C            2.15865180944142        2.00527420877058        1.92736750842984
C            2.94946861290026        1.02999600450495        1.18715850519234
C           -0.03531640015446        1.64068220717595        2.96400461296384
C            1.29653410567073        1.24726790545525        2.80721551227808
C           -2.15229470941362        1.17492770513885        2.13874730935436
C           -1.07009660468035        0.62925320275220        2.91061331273031
C           -3.04333131331079        0.75929440332097       -0.14781810064652
C           -2.86770541254265        0.32581130142502        1.24503380544548
C           -2.11426890924730        0.10075170044066       -2.36114261032706
C           -2.86182841251694       -0.25149540109998       -1.21378330530879
C            0.06773000029623       -0.02389550010451       -3.12732701367817
C           -1.08304090473696       -0.81433380356170       -2.84921481246177
C            2.28022330997314        0.41884280183191       -2.18357400955042
C            3.04861241333389        0.02436120010655       -1.03965580454720
C            1.37848750602917       -0.51281980224295       -2.78257781217032
C            2.99702311310825       -1.30141240569206       -0.52497500229611
C            2.67871931171607       -0.29352160128379        1.71265160749072
C            1.62447170710505       -0.15979860069892        2.67660021170680
C            2.81241571230082       -1.46929460642634        0.92415370404202
C           -0.77224960337763       -0.76739540335640        2.90845071272086
C            0.64057470280172       -1.18393270517823        2.83043411237963
C           -2.78589281218482       -1.05923270463283        1.52119070665332
C           -1.77128660774718       -1.61749380707452        2.37634401039355
C           -2.86541651253263       -1.64219330718255       -0.86831020379778
C           -2.99984641312060       -2.01168020879860        0.47176900206340
C           -0.99307900434349       -2.17295780950399       -2.42002411058460
C           -1.97025090861740       -2.63858581154053       -1.50291610657339
C            1.50765330659411       -1.86939280817627       -2.42786761061890
C            2.41518741056344       -2.28385340998902       -1.39199720608826
C            0.32999170144330       -2.76683901210148       -2.37578061039109
C            1.90599650833636       -3.51208491536101       -0.86298040377447
C            0.60803110265938       -3.81733661669610       -1.49616510654386
C            2.09757380917428       -2.61586451144116        1.40353490613872
C            0.96853540423614       -2.44817011070770        2.28500530999406
C            1.76306450771122       -3.68002041609552        0.50360500220264
C           -1.42953190625243       -2.95451681292234        1.86192410814360
C           -2.21728160969785       -3.21261351405119        0.71802320314046
C           -1.63764650716267       -3.65890701600317       -0.51606630225715
C           -0.33525360146632       -4.20484401839097       -0.47551220207977
C           -0.08476820037076       -3.39751571485991        1.86961080817722
C            0.38957470170390       -4.14535081813076        0.77477570338868
