6

N            0.71663385363422        0.06035539410395       -0.04392361671810
N           -0.71663385363422       -0.06035539569148       -0.04392361407221
H            1.06343807804617        0.30618869923080        0.87624431309198
H            1.08508867569995       -0.85402425249540       -0.26584158172704
H           -1.06343807804617       -0.30618866271758        0.87624432579223
H           -1.08508867569995        0.85402424138268       -0.26584161718191
