6

H           -0.00632875314244       -0.04084783672557       -0.00818150759422
N            0.99953759070625       -0.00230969539580       -0.00483617138665
N            1.47739958207387        1.34271284554915        0.00556578749763
H            0.71828265020278        2.00420914397275        0.00762829714534
H            2.03340332941611        1.48238021742724       -0.82227125789502
H            1.34770704893554       -0.45864762168032        0.82209606737095
