26

C           -4.12621734342991       -0.75299503868334        0.22995901543943
C           -4.34216277161870        0.30068442326954       -0.66648730012762
C           -3.26163161055867        1.10944288728654       -1.03590738227991
C           -1.98113128034278        0.87703818217044       -0.52890418060985
C           -1.76793133210055       -0.18223427505969        0.37047553057858
C           -2.85438539468687       -0.99390853683598        0.74960600289499
N           -0.48840726303204       -0.49237164325943        0.85790509633581
N            0.48840726303204        0.49237164325943        0.85790509633581
C            1.76793133210055        0.18223427505969        0.37047553057858
C            2.85438539468687        0.99390853683598        0.74960600289499
C            4.12621734342991        0.75299503868334        0.22995901543943
C            4.34216277161870       -0.30068442326954       -0.66648730012762
C            3.26163161055867       -1.10944288728654       -1.03590738227991
C            1.98113128034278       -0.87703818217044       -0.52890418060985
H           -0.46915335421685       -1.11917593805961        1.65844131850041
H            0.46915335421685        1.11917593805961        1.65844131850041
H           -4.95482962127820       -1.39035404798024        0.53363851082635
H           -5.33568970239556        0.48917981570741       -1.06661045997127
H           -3.41234194165590        1.93274681186274       -1.73214754434813
H           -1.14154215350479        1.50162205270712       -0.81976782355690
H           -2.69408945010599       -1.81388569602524        1.44979921631811
H            2.69408945010599        1.81388569602524        1.44979921631811
H            4.95482962127820        1.39035404798024        0.53363851082635
H            5.33568970239556       -0.48917981570741       -1.06661045997127
H            3.41234194165590       -1.93274681186274       -1.73214754434813
H            1.14154215350479       -1.50162205270712       -0.81976782355690
