18

O            2.07916085236381       -1.20040391485598        0.09532199330534
H            1.03544592653235        1.79344587284082        0.00000000000000
H            2.07089285320963        0.00000000000000        0.00000000000000
O            2.07916085236381        1.20040391485598       -0.09532199330534
H            1.03544592653235       -1.79344587284082        0.00000000000000
O            0.00000000000000       -2.40080882932772       -0.09532199330534
H           -1.03544592653235       -1.79344587284082        0.00000000000000
O            0.00000000000000        2.40080882932772        0.09532199330534
H            0.00000000000000        2.94056179125751        0.88969193688725
H            2.54660081918833        1.47028089562876       -0.88969193688725
H            2.54660081918833       -1.47028089562876        0.88969193688725
H            0.00000000000000       -2.94056179125751       -0.88969193688725
O           -2.07916085236381       -1.20040391485598        0.09532199330534
H           -1.03544592653235        1.79344587284082        0.00000000000000
H           -2.54660081918833       -1.47028089562876        0.88969193688725
O           -2.07916085236381        1.20040391485598       -0.09532199330534
H           -2.07089285320963        0.00000000000000        0.00000000000000
H           -2.54660081918833        1.47028089562876       -0.88969193688725
