9

C            1.12082640036866        0.00000000000000        0.62433048753497
C            0.66343959052663        0.00000000000000       -0.78668540922102
C           -0.66343959052663        0.00000000000000       -0.78668540922102
C           -1.12082640036866        0.00000000000000        0.62433048753497
O            0.00000000000000        0.00000000000000        1.42741370408252
O            2.22312341833650        0.00000000000000        1.06365593781284
O           -2.22312341833650        0.00000000000000        1.06365593781284
H            1.35627146194536        0.00000000000000       -1.61500786816805
H           -1.35627146194536        0.00000000000000       -1.61500786816805
