16

C            2.04047300892453        0.34804500152226        0.33807300147865
H            2.02582700886047        0.22136700096821        1.42051400621298
O            2.40028201049825       -0.92809300405926       -0.18486000080853
C            0.67778200296446        0.82684200361641       -0.14839200064903
H            0.49685400217312        1.82569900798517        0.26014400113781
H            0.70717500309301        0.93771600410134       -1.23766200541323
C           -0.45869900200624       -0.11517200050374        0.24239600106018
H           -0.50006700218717       -0.19489300085241        1.33393200583429
H           -0.26211300114642       -1.11542600487860       -0.14251800062334
H            2.48983301088992       -0.83367000364627       -1.13723700497400
H            2.80654301227514        1.09264300477896        0.10164300044456
C           -1.80642600790087        0.36562000159913       -0.27599800120715
H           -2.02129400884065        1.36854300598568        0.10990800048071
H           -1.78517600780793        0.43268500189246       -1.36366600596434
O           -2.87080201255619       -0.53108200232282        0.02675600011703
H           -2.91219301273722       -0.61327800268233        0.98330200430072
