8

C            0.00000000000000        0.00000000000000       -0.80521992841281
C            0.00000000000000        0.00000000000000        0.69833971651086
F            0.62802774020748       -1.08777595460202        1.20195247638681
F            0.62802774020748        1.08777595460202        1.20195247638681
F           -1.25605548041496        0.00000000000000        1.20195247638681
H            1.02737846973239        0.00000000000000       -1.16632573908616
H           -0.51368923486619       -0.88973585408943       -1.16632573908616
H           -0.51368923486619        0.88973585408943       -1.16632573908616
