12

N           -0.28988111169412       -1.27139464961847        0.00000000000000
H           -0.50913607854302       -2.25795832800038        0.00000000000000
C           -1.38562998489836       -0.39785652657634        0.00000000000000
O           -2.52385742140955       -0.83382841894129        0.00000000000000
C           -1.00420827397573        1.00370350970609        0.00000000000000
H           -1.77839156884745        1.75129124938163        0.00000000000000
C            0.30161857480169        1.34100361317835        0.00000000000000
H            0.63563551896608        2.36789711395805        0.00000000000000
N            1.29357647977169        0.39755695925390        0.00000000000000
H            2.26433943090109        0.66145247094559        0.00000000000000
C            1.05400885966626       -0.96626623861110        0.00000000000000
O            1.94192557526140       -1.79560075467603        0.00000000000000
