9

C           -1.22440720179115        0.05362680857042        0.00000000000000
O            0.01699390022797        0.79015811077513        0.00000000000000
C            1.14153622708641        0.06485219575978        0.00000000000000
F            2.18381119593169        0.89476785176342        0.00000000000000
F            1.24555777532438       -0.74403119485222        1.08371446019261
F            1.24555777532438       -0.74403119485222       -1.08371446019261
H           -2.00274348180883        0.81077349486213        0.00000000000000
H           -1.30315309514742       -0.56305803601322       -0.89538319840682
H           -1.30315309514742       -0.56305803601322        0.89538319840682
