33

C           -3.20322683791266        1.02580966763305        0.46213888954607
C           -2.49176080670399        2.26153067971830        0.45950043777535
C           -1.20874437766029        2.35402180231235       -0.07442544145963
C           -2.63952428499801       -0.13003536372988       -0.07099977355241
C           -2.84325018884956       -1.64274333978014        0.19003732801559
C            3.20322767866391        1.02581068556684        0.46213193226446
C            2.63952263659459       -0.13003392039702       -0.07100519379942
C            2.84324685131536       -1.64273807026306        0.19004485083686
C            2.49176477699037        2.26153253475678        0.45949152271677
C            1.20874735171472        2.35402237565033       -0.07443213601711
C            0.71627755261939        1.21336717148813       -0.71270009035261
C            1.40744256303777        0.01522284960903       -0.71167626504136
C            0.69133678575935       -1.22526472367596       -0.71112357145242
C            1.43101626651163       -2.22129642126986       -0.07085018083591
C            0.71322417914905       -3.29130007392692        0.45735096297293
C           -0.71322783058044       -3.29130520856162        0.45733980528490
C           -1.43101852425921       -2.22129754426840       -0.07085606898065
C           -0.69133776179884       -1.22526214714120       -0.71112051145566
C           -1.40744473016092        0.01522437704186       -0.71166976769130
C           -0.71627787191052        1.21336734748488       -0.71269415102711
C            0.00000253132958        3.28854663057144        0.18361634107959
H            2.92683417792836        3.08982419414898        1.00516383093815
H            4.13653052248164        0.98478211849986        1.00995717354716
H            0.00000644089447        3.67289218820853        1.20398484647116
H           -2.92683202915712        3.08982196985553        1.00517103248864
H           -4.13652627259605        0.98478115384019        1.00996876184557
H           -3.59205417153558       -2.07446109888549       -0.47987030325709
H           -1.21742786110865       -4.08101937717160        1.00037897861312
H            1.21742133655657       -4.08101108255681        1.00039768965713
H            3.17780655732157       -1.83569667540779        1.20968902122826
H           -3.17781236805920       -1.83571153095542        1.20967836214544
H           -0.00000004006955        4.15307227392576       -0.48623154509884
H            3.59205774849226       -2.07445644232068       -0.47985373754807
