5

C            0.00000000000000        0.00000000000000        0.48975800214208
H            0.00000000000000        0.00000000000000        1.57677600689643
H            0.00000000000000        0.00000000000000       -1.01893000445655
O            0.00000000000000        1.04747700458141       -0.21852500095578
O            0.00000000000000       -1.04747700458141       -0.21852500095578
