21

H           -0.32901737953957        0.36917696242037       -2.60172821812053
C           -0.32901737953957        0.36917696242037       -1.51420590799379
C            0.88272896601191        0.36917696242037        1.73161301761043
C           -0.39420439812883        1.73269335125184       -0.86969072419858
H            1.66562718926956        1.34747424139961       -1.55677092013198
H           -0.93710655294724        1.84131438222710        0.06492254232337
H           -0.47890642228315        2.59987259854375       -1.51986790960841
C            0.91350697478882        0.97858713620475       -0.86326972236752
C            1.51445714616067        0.33688895321286        0.36095462674229
H           -0.32158837742105       -2.61149988757376        0.30030360944656
C           -0.34279038346719       -1.52423457752032        0.31075261242627
H            1.54051415359130        0.44352498362207        2.59399226353353
C           -1.71918577597133       -0.90696240149394        0.36851862889930
H           -1.30049365657367       -1.56621958949310       -1.69387195922883
H           -1.85131781365118        0.02000286284704        0.91926278595400
H           -2.57431201982611       -1.57463959189422        0.43831064880176
C           -0.95257955735965       -0.87309839183700       -0.93147974181884
H            2.60187445625747        0.34774295630808        0.35050562376257
H           -0.05604630169690        0.90051411394081        1.85977205415730
C            0.88172196572475       -0.92365740625483        0.95225179536142
H            1.58613516660096       -1.67583462075182        1.29972489444968
