17

C           -0.35982297441994        0.00935499952595        0.33963797591511
C            0.56765895968944       -1.17724591622865       -0.04273599700392
C            2.00820085755137       -0.62507295560475        0.01818699892658
C            0.53108896253502        1.20600491431411        0.07142299470888
C            1.80172087195115        0.86241693902990       -0.10219399281406
C           -1.64875388311933        0.02367299812241       -0.42336096991869
C           -2.85945079691658       -0.01912899839243        0.11616699168198
H           -0.59852395765930       -0.02517999797963        1.40902790002695
H            0.34040597609307       -1.48220189450076       -1.06549592439191
H            0.40823897121862       -2.04337685482100        0.59678895756734
H            2.64569981219062       -1.03263392645955       -0.76842594547486
H            2.49657082290038       -0.86625093852094        0.96830193124812
H            0.14718398945554        2.21677484235521        0.06920899504751
H            2.61446181413846        1.55689488951259       -0.26625098126378
H           -1.54680989002420        0.07218199464084       -1.50440489336570
H           -2.99694078745803       -0.06785199523331        1.18984891551500
H           -3.75414373361903       -0.00837099926487       -0.49133996503673
