12

O           -1.70364887909174        0.00000000000000        0.03921699712697
H            0.93587693367748        0.93587693367748        0.00000000000000
H           -0.93587693367748        0.93587693367748        0.00000000000000
O            0.00000000000000        1.70364887909174       -0.03921699712697
H           -0.93587693367748       -0.93587693367748        0.00000000000000
O            0.00000000000000       -1.70364887909174       -0.03921699712697
H            0.93587693367748       -0.93587693367748        0.00000000000000
O            1.70364887909174        0.00000000000000        0.03921699712697
H            2.29555883706233        0.00000000000000       -0.71794794881851
H            0.00000000000000        2.29555883706233        0.71794794881851
H           -2.29555883706233        0.00000000000000       -0.71794794881851
H            0.00000000000000       -2.29555883706233        0.71794794881851
