7

C            0.46898700205124        0.63687400278553        0.05325600023293
H            0.58541300256045        1.71690800750934        0.03732100016324
C            1.51553500662858       -0.28588500125039       -0.03094700013535
H            1.54257500674685       -1.06229900464624        0.72900400318849
H            0.30100200131651       -1.07560100470442       -0.41197000180186
H            2.49876901092901       -0.00226400000990       -0.39553400172997
S           -1.05218100460198       -0.10516800045998       -0.00579200002533
