16

C           -1.26982900555392       -0.38590000168783        0.25763300112683
H           -1.22760900536926       -0.48055500210183        1.34342300587581
O           -2.66065601163706       -0.36112600157948       -0.06557400028680
C           -0.56748100248203        0.89920500393290       -0.17128400074915
H           -0.57186700250121        0.96662600422779       -1.26419400552928
H           -1.16748800510631        1.73355000758213        0.19698700086157
C            0.86997600380506        1.04881900458728        0.33664500147240
H            0.89749500392542        0.90033400393784        1.42163300621788
H            1.19910400524459        2.07678900908337        0.16199000070851
H           -2.73130101194605       -0.41193100180169       -1.02228300447122
H           -0.78128900341717       -1.26025700551206       -0.17103000074804
C            1.89166300827367        0.12774600055873       -0.32029700140090
H            1.81821200795242        0.20617200090175       -1.40516800614586
H            2.90204901269286        0.43663400190973       -0.03551100015532
O            1.69648500742001       -1.25571200549218       -0.02914000012745
H            1.83009200800438       -1.37188200600028        0.91568600400499
