12

N            0.00044174928620       -1.30508188560676       -0.04411523015454
H           -0.00142077510511       -2.31480421104863        0.00092735770570
C           -1.25806429770919       -0.69223600497281       -0.11871172176430
O           -2.27300116237535       -1.36499184532261       -0.17722822982295
C           -1.19246337047171        0.75896077972043       -0.12063410509417
H           -2.10845390341080        1.31824181004025       -0.20122793507607
C            0.00281521597091        1.37433631210535       -0.01993009697330
H            0.10400585386739        2.44933861457288       -0.01070583067731
N            1.17182151811096        0.67049994996206        0.08104341475096
H            2.05255032707225        1.14018860560166        0.20749476708541
C            1.23124222968236       -0.71089572266448        0.12204063915857
O            2.27052661508210       -1.32355640238734        0.28104697086198
