26

N            0.96033370794360       -0.04726392421195       -0.16744004944702
C           -0.01480432192294        0.60996496778745        0.69933817884735
C           -1.46677190211523        0.22052445415011        0.46135052081566
O           -2.31893782017621        0.45972984458103        1.30753776567290
C            0.17384875560737        2.10225082615375        0.37219389338086
C            1.63166304556674        2.18518461446205       -0.07069217578917
C            1.79481915870940        0.91490088634044       -0.89489494840030
H            0.19244427267202        0.42359676902321        1.75414413440761
H           -0.48074389725384        2.37240443529072       -0.45824463726220
H           -0.07832814672647        2.73026417292210        1.22197553489601
H            2.29209113289199        2.14635727582706        0.79599348688315
H            1.85398117096695        3.08775898860175       -0.63565391739014
H            1.42748601219419        1.05503825048886       -1.91440528873079
H            2.80992073670246        0.53150137507490       -0.95026279467740
N           -1.71674428594466       -0.32150841319104       -0.75419256754134
H           -0.91979611895533       -0.51256833398593       -1.33873859254667
C           -3.05013996296307       -0.68990500533926       -1.17590114178294
H           -3.11146394644945       -1.75456721286505       -1.39363833370093
H           -3.72299318946515       -0.45341296945745       -0.35719633955979
H           -3.35158771791438       -0.12897330308007       -2.05865364214771
C            1.39547435503577       -1.34080935188430       -0.00553065618005
O            2.33293765424372       -1.78634128474357       -0.65610105039199
C            0.64445467865301       -2.16745798007579        1.01029414363286
H           -0.42558715297526       -2.17503811906795        0.81179415272809
H            1.03224975225840       -3.17933096978856        0.97037932507459
H            0.78992302361560       -1.76732098201262        2.01348499302898
