13

N            0.00000000000000        0.00000000000000        0.40681097116886
C            0.00000000000000        1.37311090225901       -0.06553999512754
H            0.00000000000000        1.43156389846881       -1.16702491713870
H           -0.88452093730552        1.88977286574650        0.30551797822870
H            0.88452093730552        1.88977286574650        0.30551797822870
C           -1.18914891566700       -0.68655495105704       -0.06553999512754
H           -1.23977091202598       -0.71578194923441       -1.16702491713870
H           -1.19433091525542       -1.71090387854451        0.30551797822870
H           -2.07885085241601       -0.17886898720199        0.30551797822870
C            1.18914891566700       -0.68655495105704       -0.06553999512754
H            1.23977091202598       -0.71578194923441       -1.16702491713870
H            2.07885085241601       -0.17886898720199        0.30551797822870
H            1.19433091525542       -1.71090387854451        0.30551797822870
