11

N            0.00000000000000        0.00000000000000        1.61253651456938
C           -1.14009657633335        0.00000000000000        0.90955965356529
H           -2.05474684233364        0.00000000000000        1.49001879991538
C           -1.19314217647124        0.00000000000000       -0.48212809861227
H           -2.14865069558528        0.00000000000000       -0.98738852360962
C            0.00000000000000        0.00000000000000       -1.19574351450020
H            0.00000000000000        0.00000000000000       -2.27698870207393
C            1.19314217647124        0.00000000000000       -0.48212809861227
H            2.14865069558528        0.00000000000000       -0.98738852360962
C            1.14009657633335        0.00000000000000        0.90955965356529
H            2.05474684233364        0.00000000000000        1.49001879991538
