4

O            1.08158449331409        0.53552231183937        1.16453402708925
O            0.73140525814428        1.11728851048407       -1.02901212703009
C            0.55296270098921        0.41582210023044        0.01932583855628
H           -0.18253540685388       -0.43603411905283       -0.09503083312460
