6

Sb           0.00000000008820       -0.75443627964150        0.00000000000000
H            0.00000000008820        2.10335551708497        0.00000000000000
I            0.00000000008820        3.70223540377060        0.00000000000000
H            1.39818790074533       -1.68371821373802        0.00000000000000
H           -0.69909395050496       -1.68371821373802       -1.21086591394803
H           -0.69909395050496       -1.68371821373802        1.21086591394803
