19

C            0.63003995525496        1.18250991605931        2.07402985275828
C           -0.01597999869217       -0.08947999384512        1.52345989161696
N           -0.01655999861159       -0.10765999228638        0.00774999922433
H            0.94184993307297       -0.10810999241545       -0.37222997334668
H           -0.49954996478107       -0.94467993310859       -0.35128997496044
H           -0.49620996491666        0.72218994870175       -0.37269997372845
H           -1.06115992464399       -0.17775998734603        1.84638986863814
H            0.51994996322409       -0.99171992945614        1.83694986949351
H            0.62587995561397        1.12660991995738        3.16982977477921
H            1.65754988206513        1.28849990867807        1.71329987812403
H            0.05268999602786        2.06960985300742        1.78000987348133
O            2.44468982664242        0.40634997103310       -0.40887997098267
S            3.06962978202204        0.00681999938091       -1.73777987678484
C            4.14552970556698        1.41059989977934       -2.14826984720624
O            3.93710972032753       -1.17079991707496       -1.60486988589902
O            2.01739985669390       -0.04824999655350       -2.77895980247126
H            4.63114967136193        1.18882991547319       -3.10487977943285
H            3.53146974900419        2.31407983571076       -2.22697984177219
H            4.89042965252767        1.51022989300803       -1.35166990428999
