18

C            0.10303586320475       -1.81586086471885        1.86301410587741
Si          -0.02463219242629       -0.48098938163436        0.56691823892555
C           -0.44844381311196        1.16839516931617        1.32802495727300
C           -1.21137905852701       -0.95398849088626       -0.79052108464857
B            1.25937171716165        1.83212850629715       -2.47156551519045
Cl           1.86631495503529       -0.28936571274645       -0.29819018173653
Cl           0.85935475773199        0.70154179892108       -3.73440733462420
Cl           2.82476730328725        2.58569640803409       -2.42726394628583
H           -1.23192007835155       -0.21521708115726       -1.59305442332534
H           -1.43237311879397        1.14211215790678        1.80257534098012
H            0.83706000817851       -1.56524145886698        2.63049270655937
H           -0.85619615393716       -1.96446327756435        2.36509952837221
H            0.39587186218520       -2.77356539676602        1.42982307939740
H           -2.22933948123948       -1.04858478628376       -0.40467086146606
H           -0.94211393269973       -1.91116404908171       -1.24032409749680
H           -0.46668965729285        1.96649446200424        0.58405539550447
H            0.27593077922467        1.45324996739384        2.09293934290436
H            0.42138024037063        2.16882202983260       -1.70294525107298
