20

C           -0.76059194624760        2.19175684457022       -0.48828376529183
C           -1.32079990612466        0.78723694434759       -0.29749577897851
C           -0.76059194624760        0.07828299459516        0.93396113357669
C            0.76059194624760       -0.07828299459516        0.93396113357669
C            1.32079990612466       -0.78723694434759       -0.29749577897851
C            0.76059194624760       -2.19175684457022       -0.48828376529183
H            0.31029097780916        2.17292484582905       -0.68516775136400
H           -0.92241493425409        2.79615480156486        0.40495517129695
H           -1.24028191199969        2.69745180827399       -1.32490370582292
H           -1.12386592021454        0.19058698628741       -1.19039071545451
H           -2.40673482932004        0.84253694027741       -0.20398078561645
H           -1.22818291273090       -0.90381893584873        1.02564112717090
H           -1.05354392526054        0.63837195468857        1.82566507048366
H            1.05354392526054       -0.63837195468857        1.82566507048366
H            1.22818291273090        0.90381893584873        1.02564112717090
H            2.40673482932004       -0.84253694027741       -0.20398078561645
H            1.12386592021454       -0.19058698628741       -1.19039071545451
H            1.24028191199969       -2.69745180827399       -1.32490370582292
H           -0.31029097780916       -2.17292484582905       -0.68516775136400
H            0.92241493425409       -2.79615480156486        0.40495517129695
