11

C           -1.14702300501680       -0.06052600026473       -0.12181500053279
H           -2.13481900933718       -0.16757400073293       -0.56501200247122
C           -0.52213800228370        1.20933000528931        0.05657700024745
H           -0.23895300104512        1.41497900618877        1.08938100476469
H            0.70115800306669        0.87437000382428       -0.23231900101611
H           -1.04947700459016        2.04630000895002       -0.38568300168688
H            0.61095400267217       -0.94427200413002        0.20765000090821
O            1.75129100765972        0.01525000006670        0.01328200005809
H            2.30384701007647       -0.15139400066216       -0.75678200330998
N           -0.47318200206958       -1.14799700502106        0.13993400061204
H           -0.87579500383051       -2.05125700897170       -0.05160600022571
