12

P            0.06772800029623        1.68216000735736       -0.08368100036600
H            0.30200500132090        1.46827300642187       -1.47226900643935
H            1.43149800626102        1.51427500662307        0.26000800113721
N           -0.04055600017738        3.38387001480022        0.04668000020417
H           -0.97611300426928        3.73321301632817        0.16242800071042
H            0.49741500217557        3.96606801734662       -0.57319200250700
P           -0.06772800029623       -1.68216000735736        0.08368100036600
H           -1.43149800626102       -1.51427500662307       -0.26000800113721
H           -0.30200500132090       -1.46827300642187        1.47226900643935
N            0.04055600017738       -3.38387001480022       -0.04668000020417
H            0.97611300426928       -3.73321301632817       -0.16242800071042
H           -0.49741500217557       -3.96606801734662        0.57319200250700
