6

C           -0.65915803605987        0.30061248107367        0.00000000000000
C            0.62470459018839       -0.30798901842669        0.00000000000000
O            1.67780790604705        0.33666310393083        0.00000000000000
H           -0.73637344662078        1.38079941017003        0.00000000000000
H           -1.56185843169452       -0.29776319259432        0.00000000000000
H            0.65487741813974       -1.41232278415352        0.00000000000000
