21

H            2.07694459227847       -1.16331876031290        1.18158933695166
C            1.48650242390317       -0.38611053867786        0.70718420166642
C           -1.85868053003651        0.66026875971620        0.00000000000000
C            0.92934026501825        0.66026875971620        1.60966445902505
H           -0.01518600433057       -1.16331876031290        2.38948168140410
H            0.65814418768177        1.60642402952956        1.13993932507440
H            1.46824641869713        0.83216580873576        2.54307772520480
C           -0.13081203730343       -0.38611053867786        1.64094146794426
C           -1.35569038659973       -0.38611053867786        0.93375626627756
H           -0.01518600433057       -1.16331876031290       -2.38948168140410
C           -0.13081203730343       -0.38611053867786       -1.64094146794426
H           -2.93649283739426        0.83216580873576        0.00000000000000
C            0.92934026501825        0.66026875971620       -1.60966445902505
H            2.07694459227847       -1.16331876031290       -1.18158933695166
H            0.65814418768177        1.60642402952956       -1.13993932507440
H            1.46824641869713        0.83216580873576       -2.54307772520480
C            1.48650242390317       -0.38611053867786       -0.70718420166642
H           -2.06175858794791       -1.16331876031290        1.20789234445244
H           -1.31628837536354        1.60642402952956        0.00000000000000
C           -1.35569038659973       -0.38611053867786       -0.93375626627756
H           -2.06175858794791       -1.16331876031290       -1.20789234445244
