5

Si           0.00000000000000        0.00000000000000        0.00000000000000
H            0.85712167734643       -0.85712167734643        0.85712167734643
H           -0.85712167734643        0.85712167734643        0.85712167734643
H           -0.85712167734643       -0.85712167734643       -0.85712167734643
H            0.85712167734643        0.85712167734643       -0.85712167734643
