25

N            0.18551364499988        0.94632959265162       -0.87654033146241
H            0.69219985308846        1.19145272945350       -1.70975939170573
C           -0.09471635796011       -0.47869612607776       -0.71995092557029
H            0.18451142517565       -0.93562853812640       -1.66506725788559
C            0.74327652065367       -1.11309858852491        0.38384649627106
C           -1.57192141831412       -0.85098749049158       -0.54657846056816
H            0.46850600630298       -2.16332917093619        0.49409950036710
H            0.56580177617019       -0.62916587778121        1.34285167598908
C            2.21045700808100       -1.04507278445910        0.06400972288030
O           -2.04107407375722       -1.76921103005424       -1.21317901892136
O            2.95595453909372       -1.54137153336955        1.07402164744389
O            2.69398756919660       -0.61418915180938       -0.95955997944554
N           -2.24396168891201       -0.15837956983799        0.39328839442673
C           -3.63330032950963       -0.43383757984697        0.68703337255722
H           -1.73041856499406        0.55171203174969        0.90560137420386
H           -4.28741967735532        0.33721235620750        0.28144069154812
H           -3.89071418273475       -1.38551263513587        0.23251377313945
H           -3.78325644254391       -0.49230578224394        1.76254033058177
C            0.17070626175747        1.87136380953679        0.11113644984635
C            0.77689323329142        3.20550327786576       -0.24194116998398
O           -0.29744510355708        1.65628904527503        1.23226647949853
H            0.13384956439228        3.99166354386775        0.14246836259957
H            1.74040058916715        3.28692606558471        0.25835106518329
H            0.92188923941133        3.33951240506277       -1.31064978815004
H            3.87666258587839       -1.47193497539990        0.77941099110039
