4

H            0.46538655138027        0.80607315214988        0.09971444249556
H            0.46538655138027       -0.80607315214988        0.09971444249556
H           -0.93077310276053        0.00000000000000        0.09971444249556
N            0.00000000000000        0.00000000000000       -0.29914332748668
