8

C            0.00000000000000        0.00000000000000        0.85278024085401
C            0.00000000000000        0.00000000000000       -0.66021522619279
Cl          -0.85000704886856       -1.47225539543204       -1.28255706642198
Cl          -0.85000704886856        1.47225539543204       -1.28255706642198
Cl           1.70001409773713        0.00000000000000       -1.28255706642198
H            0.51313606099680       -0.88877772884223        1.21836872820158
H            0.51313606099680        0.88877772884223        1.21836872820158
H           -1.02627212199361        0.00000000000000        1.21836872820158
