4

H            0.14751498927179        0.50302496410210        0.00000000000000
F            0.03792199730233       -1.30312490731672        0.00000000000000
F            0.03792199730233        1.42819489863489        0.00000000000000
H           -0.83010994109799       -1.62865988457358        0.00000000000000
