10

C            0.00000000000000       -0.66758517034513        0.92642365512458
C            0.00000000000000       -0.78551061392296       -0.58522122149337
C            0.00000000000000        0.78551061392296       -0.58522122149337
C            0.00000000000000        0.66758517034513        0.92642365512458
H            0.00000000000000       -1.41045913050539        1.71319196172642
H            0.88703947297104       -1.24267431753694       -1.02719719767881
H           -0.88703947297104       -1.24267431753694       -1.02719719767881
H           -0.88703947297104        1.24267431753694       -1.02719719767881
H            0.88703947297104        1.24267431753694       -1.02719719767881
H            0.00000000000000        1.41045913050539        1.71319196172642
