15

O            0.80571294282436       -2.16067784680709       -0.12965699092995
H           -0.15251998913752       -1.93895186252767       -0.06562099522485
H           -1.91794186405079       -0.46598696685578        0.03239599760113
H            0.92128293476902        2.71383380754714       -0.84141594026985
H            0.90624993573816       -2.67478981009232       -0.93511793374552
H           -2.32475183507472       -1.76718687459049        0.78571394428821
H            1.27214790951935        1.47864889498802        0.03349499759533
O            0.63453795519753        2.22387384195373       -0.06615799526247
O           -1.81508787136492       -1.44533589731083        0.03786999717452
H            1.80103087196490       -0.74960294697969        0.04492099669578
O            2.30711983614858        0.08952999368307        0.15315098903982
H            2.83909479850029       -0.01911399886439        0.94569493309987
O           -1.92069886356099        1.28420790895688       -0.05571899579954
H           -1.00927892838603        1.65983688225192       -0.06571999528500
H           -2.42798582779902        1.83053187016441        0.54975596117594
