10

C           -0.10410641428875       -0.05570877463126       -1.21691512154820
N            0.68860268265986       -0.15516156493551        0.00000000000000
H            1.41400657590487        0.55170707326024        0.00000000000000
C           -0.10410641428875       -0.05570877463126        1.21691512154820
H            0.55297976429518       -0.08397921224342       -2.08809650637157
H           -0.72295644960644        0.85629175355644       -1.27833043446323
H           -0.77722152968236       -0.91487652084413       -1.28438595377720
H           -0.77722152968236       -0.91487652084413        1.28438595377720
H           -0.72295644960644        0.85629175355644        1.27833043446323
H            0.55297976429518       -0.08397921224342        2.08809650637157
