17

C            0.00000000000000        0.63310695524215        0.00000000000000
C            1.38005590176397       -0.04848599636014        0.00000000000000
C           -0.61611695622499       -0.69953495047623        0.00000000000000
C            0.56891295939296       -1.34480690449810        0.00000000000000
H            1.98767785874498        0.12887299107902        0.89023593688101
H            1.98767785874498        0.12887299107902       -0.89023593688101
C           -0.40245397155249        1.89877286515298        0.00000000000000
H            0.35438797467782        2.67667880974867        0.00000000000000
C           -1.83283386987925        2.34167283361699        0.00000000000000
H           -2.51453882130905        1.49150189399330        0.00000000000000
H           -2.05961185395674        2.95396479006777        0.87707993788407
H           -2.05961185395674        2.95396479006777       -0.87707993788407
H           -1.64106788364525       -1.04475092569117        0.00000000000000
C            0.99806292902831       -2.76137980367293        0.00000000000000
H            1.61358188537106       -2.98328078791435        0.87645293803231
H            0.14415798958948       -3.43862675566554        0.00000000000000
H            1.61358188537106       -2.98328078791435       -0.87645293803231
