16

C            1.40006600612355       -0.06413800028052        0.49242600215375
H            0.91796200401494       -0.91586000400575        0.97047900424464
O            2.62383301147601       -0.57693700252338       -0.02519200011019
C            0.51080400223413        0.53044500232004       -0.59284500259296
H            1.05937200463344        1.33808700585247       -1.08578900474898
H            0.33022300144432       -0.22583700098776       -1.35956700594642
C           -0.81609700356941        1.08395900474097       -0.06631800029006
H           -1.35149700591112        1.56563100684769       -0.88594900387492
H           -0.62137900271776        1.85301500810464        0.68748200300688
H            3.08302301348439        0.15218900066564       -0.45089300197210
H            1.58615700693746        0.68346100298929        1.27166500556195
C           -1.73443300758599        0.03135000013711        0.54952200240347
H           -1.28116100560348       -0.40620100177662        1.44393200631541
H           -2.66715501166549        0.50080300219039        0.85777900375171
O           -2.10924100922531       -0.98653000431484       -0.37468500163878
H           -1.33433100583604       -1.52724700667981       -0.54683600239173
