18

N           -0.04320331919041       -1.22121095776198       -1.12696305728486
H           -0.04555171292969       -2.23182336191847       -1.11110358346507
C           -1.30114273169521       -0.60300611697604       -1.15689929104009
O           -2.31954950076422       -1.27368461027071       -1.16675411272953
C           -1.22914807002045        0.84691845214655       -1.17314965007356
H           -2.14506848803745        1.41033056310197       -1.21569967092176
C           -0.02752399740194        1.45670596208609       -1.12722041838797
H            0.07803668327080        2.53134578874769       -1.12904301106694
N            1.14219938060553        0.74915267403036       -1.06908064058177
H            2.03139050735545        1.21564231690232       -1.00523248691123
C            1.20085623863159       -0.63296260234313       -1.04515013318664
O            2.24406814024827       -1.25231795270380       -0.96673963863428
C            0.73367753770882       -0.21607627117796        2.23726494759437
H            1.25079523813553       -1.08706410510579        1.86003837930360
H            1.33928849957763        0.57091771679938        2.66457925122776
C           -0.59509886924504       -0.11548583030750        2.18801802245135
H           -1.20710171237253       -0.90296536430552        1.77111733365009
H           -1.10692382387664        0.75558369905651        2.57201776005658
