8

N            0.05498100024048       -2.12560000929686        0.00000000000000
P            0.05498100024048        1.19949100524628        0.00000000000000
H           -0.48622700212664       -2.97976101303275        0.00000000000000
H           -0.38579600168738        2.54990401115266        0.00000000000000
H            0.65552300286710       -2.14648300938819        0.81343100355775
H           -0.82429700360528        0.80482700352012        1.03574300453009
H            0.65552300286710       -2.14648300938819       -0.81343100355775
H           -0.82429700360528        0.80482700352012       -1.03574300453009
