26

C            2.79383960907545       -0.43419743066014       -0.62654260912631
C            1.57087469638780        0.16137852679563        0.07920734036326
C            0.24746679012185       -0.33103343802647       -0.50818061789072
C           -1.04516411822770        0.28449951822857        0.05803334193106
C           -2.06681104570920       -0.81244740386383       -0.25846863537009
O           -3.20574896478586       -0.82909540252889        0.58839130435871
C           -1.26079010269772       -2.09991131268219       -0.07017764898630
O            3.99824852386311        0.06688753380273       -0.06252064948172
O           -1.45487408884871        1.50131143189244       -0.54437861510777
O            1.64299269127840       -0.11561645315425        1.48170424108866
O            0.13054079850792       -1.73139133884742       -0.18758964065497
C           -1.07513411613487        2.68942934736602        0.14454833575475
H            2.79899660874489       -0.14643145128616       -1.68305553445882
H            2.75610961208219       -1.53203135271416       -0.56928461359443
H            1.62326669261947        1.25167244936805       -0.01082965324299
H            0.25906378913376       -0.18550044813078       -1.60037454012617
H           -0.96213312397105        0.39896351022289        1.14780426490733
H           -2.37539702354084       -0.68978641242172       -1.30659456123558
H           -3.74495892633765       -0.05267745768268        0.38567731897792
H           -1.49333008628305       -2.86359325801692       -0.81924559568906
H           -1.44016209030152       -2.51309728329835        0.92843428023124
H            3.91291952994216       -0.01518946030727        0.89930928254881
H            1.35635871138949       -1.03685938794707        1.59259723307822
H           -1.43106609074050        2.67560934844673        1.18375026211560
H            0.01152480668256        2.84020333693407        0.14446133584621
H           -1.54663308225038        3.51890428851117       -0.38667562623691
