13

C           -0.61976167121360       -1.71927533136310        0.00019355193807
C            0.76134856481291       -1.70974993328267        0.00047696126021
C            1.17659666387679       -0.34582793552879       -0.00005939677961
C            0.04188727802296        0.45019848131621       -0.00067414644353
N           -1.04125324151191       -0.40581995792980       -0.00063834353054
H           -2.00911702784093       -0.10905993456258       -0.00102092986969
H           -1.33035848897719       -2.53838607351411        0.00038793629632
H            1.40138369140721       -2.58612952857065        0.00099094759259
H            2.19830559484043        0.02222936221307        0.00026215923429
C           -0.11957574692267        1.93477519862411       -0.00017248671218
H           -0.66232051550971        2.29655159028897       -0.88897860036918
H           -0.66362667795719        2.29535074675380        0.88832041319798
H            0.86649157697289        2.41514331555552        0.00091193418528
