12

C           -1.20729462672068       -0.69703187772838        0.00000000000000
C           -1.20729462672068        0.69703187772838        0.00000000000000
C            0.00000000000000        1.39406375545675        0.00000000000000
C            1.20729462672068        0.69703187772837        0.00000000000000
C            1.20729462672068       -0.69703187772837        0.00000000000000
C            0.00000000000000       -1.39406375545675        0.00000000000000
H           -2.14375940459956       -1.23770006932335        0.00000000000000
H           -2.14375940459956        1.23770006932335        0.00000000000000
H            0.00000000000000        2.47540013864670        0.00000000000000
H            2.14375940459956        1.23770006932335        0.00000000000000
H            2.14375940459956       -1.23770006932335        0.00000000000000
H            0.00000000000000       -2.47540013864670        0.00000000000000
