14

O            0.79412685027658       -0.15804949057344        2.06603931371925
O           -0.02659900065778       -1.46862547473204        0.00000000000000
H            0.85354366767852        1.31756805489064        0.76326947150199
H           -0.04920916910688        0.05568788047556        2.47385618993573
O            0.70601960262414        1.90610928657702        0.00000000000000
H            0.85354366767852        1.31756805489064       -0.76326947150199
O            0.79412685027658       -0.15804949057344       -2.06603931371925
H           -0.04920916910688        0.05568788047556       -2.47385618993573
H            0.52530289625817       -0.76678107045966       -1.28987415701534
O           -2.03773014895793        0.39058876915399        0.00000000000000
H           -1.39115327768864        1.10999287002919        0.00000000000000
H           -1.45458473649160       -0.40795531646710        0.00000000000000
H            0.52530289625817       -0.76678107045966        1.28987415701534
H           -0.04348092904100       -2.42696088322726        0.00000000000000
