4

O            2.56861981784527       -0.27937998005189       -0.68159995155843
N            3.05180978336654       -1.06204992451121        0.26560998097056
O            4.24594969845781       -1.37881990202329        0.24450998267953
O            2.24759984034888       -1.46776989578694        1.17725991667012
