16

C            1.84633900807544        0.61505700269011        0.22939100100330
H            1.87387800819589        0.68360800298994        1.31663200575863
O            2.55948601119457       -0.57700600252368       -0.09216700040312
C            0.39999300174947        0.58723000256840       -0.25160500110046
H           -0.05222400022842        1.55501200680124       -0.01639500007171
H            0.39062400170849        0.48687600212948       -1.34339200587567
C           -0.41074000179648       -0.54249800237276        0.37937200165928
H           -0.47110100206048       -0.38646000169028        1.45903500638146
H            0.10866500047528       -1.48873700651137        0.21582000094394
H            2.63674101153246       -0.61569800269291       -1.04942400458992
H            2.36131801032783        1.49282700652926       -0.17201500075235
C           -1.82269100797201       -0.65398900286039       -0.17925300078401
H           -1.78493400780687       -0.85795700375250       -1.25515500548974
H           -2.34546501025850       -1.48335100648782        0.29409100128628
O           -2.62278601147143        0.49757400217627        0.08497000037164
H           -2.28850401000936        1.21453800531209       -0.45905600200780
