11

C           -1.44347713552716        0.51764999795654        0.00000000000000
O           -0.21347995946670        1.24933560091125        0.00000000000000
C            0.99161527452719        0.61561794842258        0.00000000000000
O            1.99056434992660        1.28173235713529        0.00000000000000
C            0.99484193804748       -0.89840380089765        0.00000000000000
H           -2.22915756317656        1.26954342846119        0.00000000000000
H           -1.54547941793765       -0.10245365785548       -0.89143536547025
H           -1.54547941793765       -0.10245365785548        0.89143536547025
H            0.48609962757797       -1.29783491764519        0.87773802004595
H            2.02785267638848       -1.23489838098785        0.00000000000000
H            0.48609962757797       -1.29783491764519       -0.87773802004595
