24

F           -1.91407403937169       -1.17120803212258       -0.11067270948406
H           -2.18066474053770        1.39893831411861       -0.40937537079051
C            0.37344659963336       -0.77685632139778        0.21304843493182
C           -0.90110555694122       -0.29571351229338       -0.03834216816770
C           -1.17859084615487        1.05107584459715       -0.21531734994175
C           -0.11121530548643        1.93058816644392       -0.12772525455864
C            1.18743848019357        1.51731791063638        0.12348248454008
C            1.39420966909794        0.15658471268486        0.29036708226999
F           -0.34666518751623        3.24232847918115       -0.28842003526148
H            2.00041179674932        2.22285615072223        0.18925472482775
H            0.55953893144728       -1.82833366399669        0.36028591957580
F            2.63900620254237       -0.27402135619850        0.54129164536748
H           -1.98272790967197       -2.22971081875221        3.30275160644543
H           -2.44948940571347        0.19367356384708        3.12349055966139
C            0.12758102955801       -1.95960282257082        3.61462248680948
C           -1.17573805714239       -1.51581914362982        3.39596885385314
C           -1.43842973629134       -0.15060390565871        3.29446214940918
C           -0.39887938574460        0.77055617937023        3.41225792792439
C            0.90415972995457        0.32596738242570        3.63027209187793
C            1.16783030910780       -1.03903325554448        3.73196995632273
H           -0.60295510063718        1.82987109700341        3.33269076057638
H            1.71148137148561        1.04027933554993        3.72012497227092
H            0.33141832844954       -3.01885220720373        3.69621068216633
H            2.17935505553197       -1.38291918004855        3.89951272205552
