16

N           -0.04685300843808       -1.21946043617847       -0.86207970421624
H           -0.04871553282939       -2.22918276162034       -0.81703711635601
C           -1.30535905543348       -0.60661455554452       -0.93667619582601
O           -2.32029592009963       -1.27937039589432       -0.99519270388466
C           -1.23975812819599        0.84458222914872       -0.93859857915588
H           -2.15574866113508        1.40386325946854       -1.01919240913778
C           -0.04447954175338        1.45995776153364       -0.83789457103501
H            0.05671109614311        2.53496006400116       -0.82867030473902
N            1.12452676038668        0.75612139939034       -0.73692105931075
H            2.00525556934797        1.22581005502994       -0.61046970697630
C            1.18394747195807       -0.62527427323620       -0.69592383490314
O            2.22323185735782       -1.23793495295905       -0.53691750319973
C            0.71645234634698       -0.44377180018927        2.40426114569912
H            1.71227054533493       -0.79775762823319        2.29004242363782
C           -0.42815165780968       -0.05731414186236        2.51045298026473
H           -1.43303414118087        0.27138617714538        2.61081713913886
