22

C           -0.45374374198457        0.00018273900080        1.05920033163269
C            0.58399457455425       -0.00002840200013        1.98824481869610
C            1.91112381635879       -0.00014276000062        1.56395178084034
C            2.20001547162233       -0.00006094800027        0.20085713887850
C            1.17185256112540        0.00015168900066       -0.73846675722987
H           -1.48627633050061        0.00026897500117        1.37724060902372
H            0.35131942553658       -0.00010314200045        3.04429103231499
H            2.71283044986526       -0.00029039000127        2.28883777401082
H            3.22723809611515       -0.00016285600071       -0.13688726359871
H            1.38327470605011        0.00021489400094       -1.79790564186360
C           -0.14984145965537        0.00028100800123       -0.29979984531125
Cl          -1.43228839726448        0.00055969700245       -1.46641498941374
O           -3.69657293016791        0.00015298700067       -3.61861756582695
C           -4.84398977818643        0.00194415500850       -3.21141546104595
C           -6.00309759525609       -0.00055234800242       -4.18587698030801
C           -5.13220614544702        0.00667119502918       -1.72526393754589
H           -5.91776330588286        0.87330307381962       -4.82939394612260
H           -5.91884561688759       -0.87869898584321       -4.82365327809749
H           -6.97322496749919        0.00163776700716       -3.69903267817867
H           -6.19307046808698        0.00805524803523       -1.49529258754005
H           -4.66254023339282       -0.86711611679255       -1.27680105758442
H           -4.66140784238786        0.88256913186014       -1.28215677560784
