13

C            0.84720142836654        1.56874570846733       -1.33642839151521
H            0.14472992066770        2.27558666478225       -0.87502735136442
H            1.11896132955494        1.94988327190376       -2.33093478459240
H            1.75362458285621        1.54069548308843       -0.71718133314317
C            0.21789398830622        0.16756376442672       -1.44915076939036
H           -0.66836809686043        0.21376812582197       -2.10435855070242
H            0.92620265746263       -0.51462689468740       -1.94893541309882
C           -0.16624097947691       -0.39748198981688       -0.15831057449706
C           -0.47474076746449       -0.83942896812187        0.92968971756270
C           -0.84822613320327       -1.38005119696744        2.22993632408803
H           -0.42018947230223       -2.38258513186794        2.38412309830037
H           -0.48963236362404       -0.73618834486003        3.04761992139257
H           -1.94121609428287       -1.46588049216892        2.32895810696019
