4

B            0.00000000000000        0.00000000000000        0.00000000000000
H            0.00000000000000        1.19271291518643        0.00000000000000
H            1.03291992663331       -0.59635695740109        0.00000000000000
H           -1.03291992663331       -0.59635695740109        0.00000000000000
