4

P            0.00000000000000        0.00000000000000        0.00000000000000
H            0.72234493724848       -1.25113813190452        0.00000000000000
H            0.72234493724848        1.25113813190452        0.00000000000000
H           -1.44468987449695        0.00000000000000        0.00000000000000
