21

C            0.85683883202991        0.51500394822217       -1.32535078629233
H            1.51510354816694        1.05915102255365       -0.66233927119691
C            1.34417518516678       -0.51890708658053       -2.12394759528925
H            2.39416182246246       -0.77687312390666       -2.09314194136853
C            0.47908472856511       -1.22022946855595       -2.96292069797546
H            0.85736208563112       -2.02243584081770       -3.58192917002850
C           -0.87355161418186       -0.88608454153547       -3.00555671170797
H           -1.54412746456045       -1.42922849802078       -3.65752102068817
C           -1.36111904471895        0.14945762116446       -2.20925853950472
H           -2.41029269806949        0.40993874463883       -2.24432613164763
C           -0.49716585397395        0.84962843150649       -1.36811305906148
H           -0.86483268513424        1.64681131286321       -0.73706812801914
C            0.08320751797183        0.65400221711299        2.42962329939706
O            0.32969684937881        1.69742838734495        1.84238405793138
N           -0.22083970956777       -0.50100423782418        1.77845600061870
H           -0.19563939965008       -0.50801956709718        0.77181946518842
H           -0.37661618382228       -1.35649649404978        2.27415767653650
C            0.10605221617309        0.55911039407910        3.93804066414749
H            1.13776594368035        0.64332267115283        4.27311443423001
H           -0.31585166482455       -0.36753253644170        4.31906630940845
H           -0.44341241072280        1.40295664419129        4.34481114532205
