30

C            0.63984226409551        0.53774507703332       -1.29962489845260
C           -0.56393459221351       -0.07867269841702       -1.33268065653407
C           -1.14966629480566       -0.48936732102045       -0.14613797186020
C           -0.53150285293027       -0.27764924697767        1.03835589911993
C            0.69656469716124        0.36261266899958        1.05695567148625
C            1.28361584550571        0.76590991626414       -0.09366801147415
C            2.49449907909299        1.39310556387437       -0.18489241413015
C            3.03062901620236        1.56802404712999        1.12726736416932
N            2.43226142445366        1.16033099729837        2.31908307003517
C            1.23897643617928        0.53704799978967        2.28880252296234
C           -1.02009360298479       -0.64637663451625        2.26049898508621
C           -2.28355781705688       -1.28799885788140        2.08713834407085
N           -2.93091824883075       -1.50924153480183        0.87159901644140
C           -2.35369660304163       -1.10250500820093       -0.27564038939223
C           -1.27985176596417       -0.35246428121380       -2.46425937555389
C           -0.55293814409737        0.10748370523259       -3.60331970504014
N            0.68987343264348        0.73993014285552       -3.58120279559787
C            1.30586020770278        0.96295677892453       -2.40322049883778
C           -2.60879727094395       -1.07711162687799       -1.87624780571894
C            0.13598298557788       -0.13134839424825        3.27412570375986
C            2.66815553480104        1.59687981628614       -1.78581629973883
H            3.98469028106314        2.05299103382894        1.29037824201853
H           -2.84915757598733       -1.66531419659538        2.92945326098808
H           -0.93922687001892       -0.01198227507981       -4.60764125062957
H           -2.73681187758861       -2.08148899006708       -2.27744850204080
H           -3.50582807385632       -0.50806546148192       -2.11883445669669
H           -0.25418343856040        0.59533812180217        3.98563604297479
H            0.56840422888521       -0.95316568102369        3.84436447320618
H            2.77914011970562        2.64674597590078       -2.05480902299558
H            3.54566948426953        1.06765038033726       -2.15621455863059
