11

N            0.00000000000000        0.00000000000000       -1.43307403665143
C            1.19302699953530        0.00000000000000       -0.91198731961464
C            1.20829922479110        0.00000000000000        0.48312355353615
C            0.00000000000000        0.00000000000000        1.16461252353147
C           -1.20829922479110        0.00000000000000        0.48312355353615
C           -1.19302699953530        0.00000000000000       -0.91198731961464
H            2.07122115856090        0.00000000000000       -1.54994884706944
H            2.16660452848540        0.00000000000000        0.98856429916904
H            0.00000000000000        0.00000000000000        2.24895814107776
H           -2.16660452848540        0.00000000000000        0.98856429916904
H           -2.07122115856090        0.00000000000000       -1.54994884706944
