8

C           -1.54379756457006       -0.06415487033670        0.03091220482958
S           -0.29426543005154        1.12620387307724        0.00422062149946
C            1.20549353720524        0.07797314044807        0.02138222256222
H           -2.55963996228655        0.29595106880175        0.08668443169786
H           -1.33590892808151       -1.09599726047423       -0.21169341254890
H            2.06272238350780        0.74729200525942       -0.02962862931122
H            1.21433220465743       -0.58461225982645       -0.84359582430452
H            1.25106375961920       -0.50265569694910        0.94171838557553
