7

Bi           1.43203146977599       -0.38637554378238       -0.36532654532304
H            3.00488535811232        0.32179740549554        0.04762842515277
H            0.75828151764696        1.23719634053828       -0.51139253520581
H            1.01213949936711       -0.40655854252653        1.34658633287235
O           -1.80438330023647       -0.39004354355743       -0.42772354109072
H           -1.91003829298845        0.50882639260392       -0.10984256343283
H           -2.49291625167743       -0.88484250877140        0.02007042702726
