25

N            0.76296995369630       -1.15628086118002       -0.07223657611162
H            0.34731971571664       -1.96477534125859       -0.51536014610656
C           -0.20897214280170       -0.42656895558480        0.73565832237666
H           -0.29592205217210       -0.93180356731680        1.70341679684589
C            0.12664471608774        1.03209439534921        1.04265235581023
C           -1.55091901118936       -0.69832287767854        0.03574071414661
H            1.01738590104378        1.06044655407787        1.66218521306445
H           -0.70585829492504        1.43485380430834        1.61645544246980
C            0.30853908305722        1.91412019006237       -0.17746863912729
O           -1.80296171712651       -1.85592511757740       -0.29856732698269
O            1.53703123283597        1.98617676490355       -0.67555124022969
O           -0.61958532356923        2.52784062088580       -0.67170492787972
N           -2.39344846702007        0.33449777211849       -0.13075262029437
C           -3.65317422189637        0.10876334500456       -0.81653833972135
H           -2.00236588088155        1.27139324566741       -0.14752142051620
H           -4.28270779564240        0.98281884508845       -0.68411558716971
H           -3.50261705254675       -0.07238896571137       -1.88025255128743
H           -4.14125099419661       -0.76172387780120       -0.38937322466851
C            2.10154330759217       -1.02370368792588       -0.09679432806461
C            2.84032876302988       -2.07089437281731       -0.88726266354732
O            2.71656433033051       -0.10087726126368        0.45713334368225
H            3.54031239796107       -2.56828382604941       -0.21968794432912
H            2.18650086414080       -2.80938426542013       -1.34243282213788
H            3.42051076419480       -1.57184627010054       -1.65961101419351
H            2.10669291488846        1.34423469265661       -0.18587583176452
