22

N            0.47526989891393       -1.85098286129051       -2.13880980248811
H            0.11692917591037       -2.57526142525785       -2.73566260539644
C            0.79831130562031       -2.23470017118526       -0.76358546598467
H            0.66878084374756       -3.31356550860895       -0.72460198336711
C            2.23622076250370       -1.89495250906015       -0.38505912174077
C           -0.19333804675548       -1.70979827135685        0.28165178285529
H            2.43262915755682       -2.25740308679514        0.62251432025351
H            2.92764984321578       -2.38109703514009       -1.07163327393432
H            2.40711105866996       -0.82340009502533       -0.41624800848607
O           -0.74263771236123       -2.48762668182599        1.05672843144292
C            0.63069743195191       -0.62424844915580       -2.69120989732476
C            0.35267662694443       -0.54391272831469       -4.17240101847090
H            1.30244308123032       -0.44976834868397       -4.69579930337429
H           -0.22495074071180        0.35483105108378       -4.36737218777835
H           -0.17782164777813       -1.41043991683422       -4.55922053589268
O            0.99002386246310        0.36712901961583       -2.05447151641550
N           -0.35400129269823       -0.37064581266729        0.30246957878246
H            0.12907084843724        0.17107908669845       -0.40581926557245
C           -1.24289746785878        0.26360969023835        1.25078920033362
H           -1.33177771192946       -0.37929261944318        2.12136899437593
H           -0.83327738212358        1.22543038668946        1.54784342086751
H           -2.23861085939665        0.41761518787751        0.83442715600104
