10

C            0.00398400001743        1.12820400493449        0.00000000000000
H            0.00375700001643        2.21437600968514        0.00000000000000
N            0.00398400001743        0.46697200204242        1.13402200495993
H           -0.00947900004146       -0.65736300287515        0.93681400409740
H            0.00691800003026        0.97367900425864        2.00113900875249
H           -0.00947900004146       -0.65736300287515       -0.93681400409740
O            0.06729100029432       -1.72000500752288        0.00000000000000
H           -0.61663800269703       -2.39380901046994        0.00000000000000
N            0.00398400001743        0.46697200204242       -1.13402200495993
H            0.00691800003026        0.97367900425864       -2.00113900875249
