6

N            0.00000000000000        0.00000000000000       -2.20393884369701
H            0.00000000000000        0.94869993256832       -2.55249081872582
H            0.82159794150692       -0.47434996654875       -2.55249081872582
H           -0.82159794150692       -0.47434996654875       -2.55249081872582
Br           0.00000000000000        0.00000000000000        0.15297498893289
F            0.00000000000000        0.00000000000000        1.97010386028704
