4

F            1.88046286639221        0.00000000000000        0.00000000000000
C            0.59457995757225        0.00000000000000        0.00000000000000
C           -0.59457995757225        0.00000000000000        0.00000000000000
F           -1.88046286639221        0.00000000000000        0.00000000000000
