6

C           -0.62421615402263        0.28593983309365        0.00000000000000
H           -0.68092140702406        1.36354297805150        0.00000000000000
H           -1.48969196064435       -0.35847388703979        0.00000000000000
N            0.55573798004421       -0.26924613080402        0.00000000000000
H            0.55368997533623       -1.30176729806677        0.00000000000000
O            1.68540156631059        0.28000450476544        0.00000000000000
