14

C            0.72983939864600       -1.26411891982039       -0.06542152421856
C            0.00000000000000        0.00000000000000        0.40178287673511
C            0.72983939864600        1.26411891982039       -0.06542152421856
C           -1.45967879729200        0.00000000000000       -0.06542152421856
H            1.76158632936255       -1.28463628108043        0.29526920327647
H            0.23173448935754       -2.16789665272756        0.29526920327647
H            0.75902932594381       -1.31467735696943       -1.15863283188292
H            0.00000000000000        0.00000000000000        1.49876497191058
H            0.23173448935754        2.16789665272756        0.29526920327647
H            0.75902932594381        1.31467735696943       -1.15863283188292
H            1.76158632936255        1.28463628108043        0.29526920327647
H           -1.99332081872009        0.88326037164713        0.29526920327647
H           -1.99332081872009       -0.88326037164713        0.29526920327647
H           -1.51805865188761        0.00000000000000       -1.15863283188292
