21

C           -0.83900065579766       -0.55475782260886        0.12422265261437
C            0.10642157536979       -1.70800844928993       -0.22089270345710
C           -0.27550916837876        0.57142180615506       -0.75711768324992
C            1.24720632675898        0.43425598693269       -0.58725270104906
C            1.50329408921544       -1.05774427714528       -0.26813270090209
C           -0.79722371596180       -0.22697064354554        1.61276426730014
C           -0.80064339105796        1.96819209544965       -0.47222346007825
H           -1.86806190319449       -0.78709899408482       -0.15874267102081
H            0.04748563292063       -2.53310194003774        0.48911697878372
H           -0.15198456989939       -2.10149765020306       -1.20552927835937
H           -0.52455589533112        0.31099912006801       -1.79061176497034
H            1.77860624536500        0.76806348310659       -1.47747451148648
H            1.58239671872828        1.06791560464294        0.23531942924161
H            2.14001896642380       -1.53477907277156       -1.01067381394237
H            2.00669509960825       -1.16215842580258        0.69188669550008
H            0.20819415420560        0.05001059895265        1.93217835060201
H           -1.10308088755138       -1.09301859602291        2.19961323151302
H           -1.46447093020511        0.59649413425176        1.86325404582203
H           -0.52714862508676        2.29048225369590        0.53225657281482
H           -1.88698561838306        2.01165566386879       -0.55809413993397
H           -0.38165344774827        2.68964512438824       -1.17386679574206
