19

C           -0.73401643565492       -0.15156844142089       -0.00032602853056
C            0.73790088530537       -0.13424214795782        0.00433078077389
O           -0.01270022308799        1.10591754410905       -0.01260243207802
H           -1.22404194926526       -0.37249179473689       -0.95953310784428
H            1.23278072652460       -0.32106001992374        0.96830031993972
C            1.57401230818013       -0.43662907755312       -1.21525501103650
H            1.81999056621652       -1.51255470995574       -1.20961937274943
H            0.96610100445577       -0.25234300939605       -2.11470179983580
C            2.86084061044982        0.39508904949330       -1.26847232887413
H            3.45006618726384        0.15881522399931       -2.16553031114682
H            2.62863836130742        1.46888163978602       -1.28712079011985
H            3.49595137807021        0.20259288469955       -0.39098327879654
C           -1.56322753639829       -0.44483280136157        1.22615065637293
H           -1.78257500881747       -1.52628103037966        1.24671227262714
H           -0.96059828617890       -0.22378319715826        2.12091711907377
C           -2.87030782434007        0.35586952506889        1.25886427682542
H           -3.45389967287924        0.12754357450996        2.16164378750328
H           -2.66469633824282        1.43516007528534        1.25065808181231
H           -3.50021875290867        0.12591671289232        0.38656716608347
