12

C           -1.20818642568247       -0.69754675809902        0.00000000000000
C           -1.20818642568247        0.69754675809902        0.00000000000000
C            0.00000000000000        1.39509351619805        0.00000000000000
C            1.20818642568247        0.69754675809902        0.00000000000000
C            1.20818642568247       -0.69754675809902        0.00000000000000
C            0.00000000000000       -1.39509351619805        0.00000000000000
H           -2.14402727208886       -1.23785472269041        0.00000000000000
H           -2.14402727208886        1.23785472269041        0.00000000000000
H            0.00000000000000        2.47570944538081        0.00000000000000
H            2.14402727208886        1.23785472269041        0.00000000000000
H            2.14402727208886       -1.23785472269041        0.00000000000000
H            0.00000000000000       -2.47570944538081        0.00000000000000
