17

C            0.00077726859219       -0.30083856374974       -2.53269014508726
H            0.87383933034017       -0.95329201674216       -2.56226210118945
H           -0.88395232454679       -0.93638009703722       -2.56874452766834
H            0.01061351530539        0.31034069951687       -3.43386232623645
C            0.00299075979557        0.55258616990869       -1.27125394255377
H           -0.86796559988410        1.21202563627236       -1.27158148212138
H            0.88173141817306        1.20109416731809       -1.26294462193939
C           -0.00718927491560       -0.28534136161482        0.00000000000000
H           -0.88868759060509       -0.93349084632212        0.00000000000000
H            0.86068581558835       -0.95213546207568        0.00000000000000
C            0.00299075979557        0.55258616990869        1.27125394255377
H           -0.86796559988410        1.21202563627236        1.27158148212138
H            0.88173141817306        1.20109416731809        1.26294462193939
C            0.00077726859219       -0.30083856374974        2.53269014508726
H            0.87383933034017       -0.95329201674216        2.56226210118945
H            0.01061351530539        0.31034069951687        3.43386232623645
H           -0.88395232454679       -0.93638009703722        2.56874452766834
