12

C           -0.59346180807825       -0.08288008828641        2.19765108231145
C            0.59346180807825        0.08288008828641        2.19765108231145
C            2.56573851759098        0.47959338282874       -1.25629748461854
C            1.50162838722992        0.92429562374563       -0.92870907878373
C           -2.56573851759098       -0.47959338282874       -1.25629748461854
C           -1.50162838722992       -0.92429562374563       -0.92870907878373
H           -1.64645630768874       -0.23140433217999        2.18545231991070
H            1.64645630768874        0.23140433217999        2.18545231991070
H            3.50927647022026        0.08900949697435       -1.55377850349560
H            0.55285308682496        1.30756610986951       -0.63435457978333
H           -3.50927647022026       -0.08900949697435       -1.55377850349560
H           -0.55285308682496       -1.30756610986951       -0.63435457978333
