4

S            0.00000000000000        0.00000000000000        0.00000000000000
O            1.42278989900721       -0.00001269496129        0.00000000000000
O           -0.71140594368934       -1.23216556497978        0.00000000000000
O           -0.71138395531787        1.23217825994107        0.00000000000000
