17

C            0.29967462598028        0.03433304993702        2.53355894316665
H            1.03406555290152       -0.77022397332336        2.56812638345596
H            0.84202854842982        0.97931549430727        2.56404966434294
H           -0.30902192335866       -0.03127597470393        3.43425369760712
C           -0.54793529205154       -0.05981425134076        1.27175250203392
H           -1.29168344574882        0.74040029722599        1.26632605402292
H           -1.10766814183708       -0.99826564369749        1.27063498129113
C            0.28500642873005        0.02563387895095        0.00000000000000
H            0.84775236854823        0.96395742970146        0.00000000000000
H            1.02821638894130       -0.77727029801509        0.00000000000000
C           -0.54793529205154       -0.05981425134076       -1.27175250203392
H           -1.29168344574882        0.74040029722599       -1.26632605402292
H           -1.10766814183708       -0.99826564369749       -1.27063498129113
C            0.29967462598028        0.03433304993702       -2.53355894316665
H            1.03406555290152       -0.77022397332336       -2.56812638345596
H           -0.30902192335866       -0.03127597470393       -3.43425369760712
H            0.84202854842982        0.97931549430727       -2.56404966434294
