17

C           -0.52257596279903       -1.01864092786812        0.00000000000000
C            0.74206894730931       -1.91728786399020        0.00000000000000
C            0.00000000000000        0.41201497077064        0.00000000000000
C            1.88274086633300       -0.93557093378021        0.00000000000000
C            1.45540789650268        0.33016597636619        0.00000000000000
C           -0.72021094870208        1.53727389072503        0.00000000000000
C           -2.21309184305212        1.61892588515411        0.00000000000000
H           -0.18619298660046        2.48223482381192        0.00000000000000
H           -1.14514491851810       -1.20803791420226        0.87480693813874
H           -1.14514491851810       -1.20803791420226       -0.87480693813874
H            0.77953994486682       -2.57342981749632       -0.87341893806517
H            0.77953994486682       -2.57342981749632        0.87341893806517
H            2.91888579256843       -1.24318291174170        0.00000000000000
H            2.09035485170816        1.20524791467201        0.00000000000000
H           -2.67754080979131        0.63397795500162        0.00000000000000
H           -2.58016281696869        2.16168584631304       -0.87593793800806
H           -2.58016281696869        2.16168584631304        0.87593793800806
