5

F           -1.02014011230712        0.00000000000000       -0.00000001693367
Si           0.57522377440717        0.00000000000000        0.00000004127582
H            1.06676679003149        0.00024689397787       -1.39029282062114
H            1.06676671435915        1.20390544870990        0.69535981477947
H            1.06676671435915       -1.20415234215860        0.69493218191275
