6

C            0.00000000000000        0.00000000000000        0.48302499817019
N            0.00000000000000        0.00000000000000       -0.93724998549964
C            0.00000000000000        0.00000000000000       -2.10375588172431
H            0.51295537577042       -0.88846477284995        0.85266028968459
H            0.51295537577042        0.88846477284995        0.85266028968459
H           -1.02591075154084        0.00000000000000        0.85266028968459
