14

C            0.70301494999273        1.81564487112604        0.00000000000000
H            0.18871498644896        2.20208284353153        0.87966393772213
H            0.18871498644896        2.20208284353153       -0.87966393772213
H            1.71433587851292        2.21892684255620        0.00000000000000
C            0.70301494999273        0.29266797912903        0.00000000000000
H            1.24341791193258       -0.07694399474379       -0.87442593795537
H            1.24341791193258       -0.07694399474379        0.87442593795537
C           -0.70301494999273       -0.29266797912903        0.00000000000000
H           -1.24341791193258        0.07694399474379       -0.87442593795537
H           -1.24341791193258        0.07694399474379        0.87442593795537
C           -0.70301494999273       -1.81564487112604        0.00000000000000
H           -0.18871498644896       -2.20208284353153        0.87966393772213
H           -1.71433587851292       -2.21892684255620        0.00000000000000
H           -0.18871498644896       -2.20208284353153       -0.87966393772213
