7

C           -0.59462262932060        0.26191566724390        0.00000000000000
C            0.79165195397333       -0.31846811120094        0.00000000000000
O            1.80877774343898        0.32844985692450        0.00000000000000
H           -0.56041292626839        1.35044660803890        0.00000000000000
H           -1.14144400679564       -0.09664656702451        0.87804030773993
H           -1.14144400679564       -0.09664656702451       -0.87804030773993
H            0.83749387176796       -1.42905088695734        0.00000000000000
