4

H            1.26209849614004        0.61672997733155        0.00000000000000
S            0.00000026458861        1.05997992190658        0.00000000000000
H           -0.50057597642092       -0.27862040067089        0.00000000000000
H           -0.76152278430772       -1.39808949856724        0.00000000000000
