15

C            0.27801363621399        0.32001242452819        0.45832975001046
H            0.76214021922304        0.53337734760690        1.41589494227692
C            1.11756282922872       -0.70372248514886       -0.28708119039154
O            1.76703673038731       -0.43908399235486       -1.26024127717222
H            1.22093974553882        1.85344717657880       -0.61745958617922
O            1.03697930232261       -1.87893366801433        0.28967409775196
N            0.28294463977452        1.57596601604978       -0.32045211288265
H           -0.29160101362742        1.49650073096939       -1.16668238637564
H           -0.09117657794497        2.35290193403617        0.22711797424213
C           -1.15464255406793       -0.13106759861807        0.71500370480384
H           -1.16265837301940       -1.00674690041727        1.36004673526017
H           -1.69258035982010        0.65438731812415        1.24711043317639
S           -2.08920817380525       -0.44411300706033       -0.81006900815560
H           -1.57666055368409       -1.64698728141441       -1.09502910935410
H            1.59291050328016       -2.53593801486523       -0.15616296701087
