12

H           -1.36835590264138       -0.18097698737625       -0.01316899929348
H            0.84294894019098       -1.09490892200878        0.00396799986109
H            0.52829796233066        1.27667190952582        0.00801699929033
H           -1.94141486229222       -1.48403089445741       -0.83287494070927
H            2.25656083992409       -0.94485793297620        0.82673494145285
H           -0.32170597690293        2.42371982814173        0.82026594161169
N           -1.41486889934224       -1.20045491483886       -0.01484999896778
N            1.74803987570606       -0.62359095566649        0.01122999927001
N           -0.33316797645821        1.82376487052706        0.00371699999724
H            2.26591083925458       -0.93811093359154       -0.80101794290643
H           -0.30934797819838        2.43049482735098       -0.80754694244729
H           -1.95292086134505       -1.48603689466591        0.79494394369011
