33

N           -2.64445896353500       -2.29414547326847       -0.27650379838432
C           -1.41902905079295       -2.80959943683985        0.07763417604539
C           -0.53662211347291       -1.78330050985140        0.34371515754264
C           -1.26861406139490       -0.56055559676824        0.14520017163412
C           -0.92643308576285        0.80626430657558        0.26922816275218
C           -1.90187901625198        1.75606023870331        0.00054018178775
C           -3.21180992356650        1.37205826638272       -0.38333879122782
C           -3.56525789853914        0.04302436073967       -0.50637678227359
C           -2.58162196802919       -0.91957557122950       -0.23907380094795
H           -3.46109990578263       -2.83528943517744       -0.49327778307074
H           -1.26312106171375       -3.87538636107181        0.12635417298066
H            0.07263284310512        1.09756928555001        0.55346514238746
H           -3.92851987235446        2.15711121065419       -0.58042577708659
H           -4.56871082713792       -0.23650061968896       -0.80064976117507
O           -1.71079502990315        3.10579714331022        0.07079717684658
C           -0.39685012346930        3.53849511226285        0.40862315262295
H            0.34236382388541        3.16478913878913       -0.29996179709771
H           -0.12699614232565        3.21510613539577        1.41688508125703
H           -0.42731112109750        4.62339603535920        0.37651315519558
C            0.90070378450374       -1.95292349797852        0.73404112985683
C            1.87299271572071       -1.76337751121711       -0.44242678686128
N            1.87058171555479       -0.41447960702373       -0.98099374835916
C            2.62389066199587        0.63104631880155       -0.52568478067856
C            3.81769657736528        0.29083634306809        0.34499115725952
H            1.04755377423743       -2.95801742627540        1.13856710112875
H            1.16314176561574       -1.24742554796856        1.52724707354937
H            1.60024773469679       -2.45026946243079       -1.24489272954098
H            2.88671864353724       -2.01374649317476       -0.13459880881666
H            1.03926077463509       -0.12107362783118       -1.47359971378020
O            2.36191268087469        1.78906223681694       -0.83127875933829
H            4.49614752922346       -0.39118260836005       -0.16690080655311
H            3.50612859969430       -0.18046562360122        1.27730609117825
H            4.33715654048410        1.21669827734781        0.56887614116690
