10

O           -3.78503762555483        0.00086698200379       -3.64161959392756
C           -4.94250466061731        0.03047274413328       -3.26252623126950
C           -5.26827854504217        0.03076318113455       -1.78486035980655
C           -6.07481381556976        0.06757040129554       -4.26610215265889
H           -5.94942573502134        0.94411522812933       -4.89933203442849
H           -5.99800412023381       -0.80730129653094       -4.90932578847220
H           -7.05630116386255        0.09212845340295       -3.80351196363563
H           -6.33437368270501        0.05888028925753       -1.58305598492390
H           -4.83429289414402       -0.85895629675687       -1.33161310282415
H           -4.78613141893338        0.88988184289212       -1.32137500977937
