23

N            1.15328327565176       -0.07135766014364       -1.50586350091031
C            0.55446295282466       -1.25848236502678       -1.68212283746729
H            1.19400584279913       -2.12955669614480       -1.61628165954264
C           -0.80878591029693       -1.40868290218504       -1.92440865552041
H           -1.22788766461018       -2.39690259109636       -2.04895777982659
C           -1.60533953380274       -0.26997369191141       -1.99204149148264
H           -2.66848453498831       -0.34598811279944       -2.17433031075225
C           -1.00109428041749        0.97060260507495       -1.81575149386888
H           -1.57628617083935        1.88446670818505       -1.84721861771570
C            0.37024656587604        1.01607511343499       -1.57822581691918
H            0.86722247352966        1.96801815087451       -1.43802663379511
N           -0.77063950587313       -0.38398273279466        1.46194849625222
H           -1.66552846145640       -0.81584619351912        1.27734502146559
C           -0.77038461973184        1.01382695961807        1.55495949065508
O           -1.81026762309281        1.64202671805579        1.44010936863351
C            0.54911003958067        1.57290826522906        1.78252254140476
H            0.65042639834057        2.64013035933282        1.87839071544314
C            1.61898355440340        0.75421602097026        1.85404258933083
H            2.62286252304550        1.12288069302158        2.00246911174890
N            1.50092242157929       -0.60307714632147        1.74148793327308
H            2.31435835812737       -1.19526445453512        1.73332029469365
C            0.30047556981359       -1.25030952833961        1.51510625212554
O            0.20833832953759       -2.45572751897967        1.38152698277469
