4

O            1.04345427377528       -0.24797516417577        0.00000000000000
N            0.13079426631182        0.50643644522416        0.00000000000000
O           -1.10203352955090       -0.12744013741588        0.00000000000000
H           -0.88774988033621       -1.07856313486134        0.00000000000000
