26

N            2.48699116009454        1.14789131929381        2.90507145502537
C            3.73360762075517        1.92447827094988        2.79783759920207
C            4.38072983734693        2.07199276244470        4.18454534739980
O            4.29786659241689        3.10234814453502        4.84632470985052
C            3.28743181841544        3.27293428661049        2.22612005853636
C            1.87721816276898        3.02563887277398        1.68786514981001
C            1.32651676511035        2.00111745264797        2.67229550303575
H            4.41152444560725        1.37748315795300        2.14159174049524
H            3.97586455032743        3.63505903123984        1.46694567362562
H            3.26844506788983        3.99101151857443        3.04419683668806
H            1.91279352675145        2.58171356313859        0.69268363218046
H            1.27622861387907        3.93127469790471        1.64321122704222
H            0.49269386991458        1.42670472357312        2.28121055215283
H            1.01757422201689        2.48393926003774        3.60270485649248
N            5.02891091362417        0.96008170532860        4.59066096096566
H            4.85113313016029        0.12018083260337        4.05029743760684
C            5.57773490562835        0.87259840558749        5.92629572587359
H            6.35974937429180        0.11900843258819        5.94435413011959
H            5.99711872440620        1.83731895749502        6.19510624930755
H            4.81811539167853        0.61492008253792        6.66534582450461
C            2.51665069389255       -0.20639029585876        2.91036570275594
O            3.58136915557744       -0.83330620359548        2.94801642736334
C            1.18767542818404       -0.92100599059859        2.87097298812389
H            1.37409917795465       -1.97501148162656        3.04442240955299
H            0.50342328585912       -0.53945445144209        3.62588410475933
H            0.71583191647399       -0.80232390065180        1.89597207743570
