21

C           -1.00857580053625       -1.17708064722826       -0.97350156488844
C            0.52618063708379       -1.20171899423177       -0.96116383859243
C            1.10801352486315        0.21877809353493       -0.90252225272651
C            0.56782563207787        1.04361714988924        0.28575188755455
C           -0.97595029348698        1.03016214195516        0.27563099783893
C           -1.56349007310611       -0.38823711875166        0.22076488229490
H            2.20858227157385        0.17905416628327       -0.86076065422193
H            0.87433932448732       -1.78679415051775       -0.09288278425204
H            0.90685111564030       -1.72388853930180       -1.85318718305382
H           -1.35458163475804       -0.70500886006430       -1.91063881421112
H           -1.40922387278115       -2.20310268065357       -0.97501455958262
H           -1.36034396912921        1.56929083935020        1.15680479170520
H           -1.32682379471096        1.59003884822259       -0.60921448215667
H           -1.33058241947010       -0.92885984221917        1.15412610296081
H           -2.66208713447498       -0.33415655825746        0.16592150401393
H            0.85129285588396        0.74322884408963       -1.83998030753105
C            1.14868342194436        0.58251374154481        1.63145229576093
H            2.24725674114265        0.64419687873666        1.62578679854390
H            0.78229751766997        1.21520031550014        2.45379014707901
H            0.87933093294163       -0.45589158694910        1.87135793197637
H            0.89100501714494        2.08865795906822        0.13747910148811
