6

F           -0.65736595309519        2.22395884210159        0.00000000000000
I            0.00000000000000        0.39300497216186        0.00000000000000
O            0.81806294195700       -2.05042685419733        0.00000000000000
C            0.01496999889636       -2.94899979070741        0.00000000000000
H           -1.06750292421616       -2.75184980471416        0.00000000000000
H            0.34947097539473       -3.99564871630093        0.00000000000000
