7

C            0.05013175681907        0.49299885219268        0.03840445774819
C            1.37047834039457        0.07430982407895        0.05139195879574
N            2.48218160293973       -0.27869243448194        0.05054097580506
N           -0.99795356971580       -0.39892934306253        0.09127242912015
H           -1.90795687918806       -0.06909207683758       -0.18718907608924
H           -0.81268154092899       -1.36676874455503       -0.12201169109977
H           -0.18419971032052        1.54617392266546        0.07759094571987
