4

S           -1.55234288968154        0.92196093460365        0.00000000000000
S           -1.06850792434568       -0.92196093460365        0.00000000000000
S            1.06850792434568       -0.92196093460365        0.00000000000000
S            1.55234288968154        0.92196093460365        0.00000000000000
