26

N           -1.15783536623284       -0.95708510891957       -0.54603998054609
C            0.10494474052162       -0.47638489389149       -0.00111378690271
C            0.24091299729130        1.02727779306580       -0.28556380651517
O            0.98871672245490        1.47077722749014       -1.16070870230723
C            1.25381429143449       -1.26907624118854       -0.60634043166899
C            2.53947778234090       -1.06511948985740        0.18006581332031
O            2.85444460935297       -1.81601500477653        1.09217476559953
N            3.28749408908634       -0.00531083157676       -0.22331184408762
H           -1.15634790381752       -1.37201453904369       -1.46247641338659
H            0.06160629800398       -0.63498627758163        1.07738000423389
H            1.38098023509036       -0.97498361927002       -1.64792656287518
H            1.01649125747883       -2.32836450990537       -0.54190538628179
H            4.06432142305756        0.24945867362388        0.36223997875975
H            2.83983691587388        0.70190065640397       -0.78772278249713
N           -0.54390984648916        1.79274949221866        0.49079509316346
H           -1.22037787071871        1.30692261344359        1.07021894847330
C           -0.63351126517898        3.22355895513288        0.29088458320437
H           -1.35750598521450        3.47955444985413       -0.48267131433697
H           -0.92578942251200        3.69762714685138        1.22305776081530
H            0.33955693513303        3.59382815637847       -0.01663030203954
C           -2.32983643315224       -0.82884354888939        0.12368767523744
O           -2.40391845253915       -0.25583668773710        1.21091735470430
C           -3.53733509156584       -1.43835261862525       -0.53891175016802
H           -4.27351412848681       -0.65615356497284       -0.70785853003648
H           -3.30891269609927       -1.92949640611274       -1.48119152537199
H           -3.97439586070216       -2.16049581172634        0.14635912741503
