25

N           -1.14806124197068       -1.12267178063124        0.07093752249617
H           -0.96091988855356       -2.11270674784920        0.15230330248838
C            0.00077645450114       -0.27752272224879       -0.10761944497966
H           -0.06215851390067        0.18048368331090       -1.09959719298450
C            0.07374711580915        0.84741176967691        0.95313003806766
C            1.24623791302298       -1.16027044132331       -0.09647734304830
H            0.86628380636555        0.66039493249043        1.67158812833097
H           -0.87816456288281        0.90372287143621        1.47319666188583
C            0.35122485296945        2.13803681223940        0.22239554029482
O            1.15558512512742       -2.38383499191423       -0.04263349862632
O           -0.70483439980003        2.65853465320251       -0.40919222569183
O            1.46130029463336        2.62159165022384        0.13531972821245
N            2.40075846035776       -0.46910242488210       -0.16609795373796
C            3.69250666266964       -1.12529950241043       -0.18086848580179
H            2.36244548727435        0.54206590021359       -0.15729068937089
H            3.51806117483666       -2.19594952042462       -0.20226659718153
H            4.25767758022257       -0.83439466088679       -1.06329040046258
H            4.26646091416453       -0.87382867251934        0.70871255504204
C           -2.38213206025141       -0.61198361624263       -0.09741187205537
C           -3.53218039080455       -1.57396039614482        0.00374630140660
O           -2.56265378308496        0.59374552791506       -0.31820953224342
H           -4.04363666513649       -1.60186001340868       -0.95584290047573
H           -4.23643752908368       -1.19962898098991        0.74216687109014
H           -3.21752079079505       -2.57793903879297        0.27456159824813
H           -1.45387501363288        2.02263167955241       -0.34067510578345
