14

O            2.58304009152147        1.24322978382011        0.00000000000000
N            0.31932007754232        1.09472616904147        0.00000000000000
N           -1.97481255463986        1.02155426040349        0.00000000000000
N            1.61176432673783       -0.81329430445400        0.00000000000000
C           -0.83089338753719        0.38835190985829        0.00000000000000
C           -0.73854057329179       -1.02553902837552        0.00000000000000
C            1.59400181326617        0.55637239788718        0.00000000000000
C            0.49608125821435       -1.57163935274193        0.00000000000000
H           -1.62589705267502       -1.63977068586491        0.00000000000000
H            0.65107145560377       -2.64119284578164        0.00000000000000
H           -2.84351114271472        0.50860886366643        0.00000000000000
H           -2.04293619377059        2.02903205681331        0.00000000000000
H            2.52036285543378       -1.25950967390478        0.00000000000000
H            0.28094902630950        2.10907044963251        0.00000000000000
