11

C           -1.79518858150421       -0.41024609575392        0.00000000000000
C           -0.49210633427377        0.34535416051985        0.00000000000000
O            0.56073391194477       -0.50407678213584        0.00000000000000
O           -0.37506969180634        1.54553130732309        0.00000000000000
C            1.86445346060669        0.10603282085947        0.00000000000000
H           -2.62230986294591        0.29502137879776        0.00000000000000
H           -1.85444592245692       -1.05348021884883        0.87976444156710
H           -1.85444592245692       -1.05348021884883       -0.87976444156710
H            2.57159061189307       -0.71943448363117        0.00000000000000
H            1.99839416549978        0.72438906585921        0.88786290836610
H            1.99839416549978        0.72438906585921       -0.88786290836610
