16

C           -2.86760751879222       -0.19224618834084        0.02773360012130
N           -2.06398291527736        0.91836831651672       -0.00339230001484
H           -2.35106481653299        1.88172672073022       -0.01675760007329
C           -0.77434040963678        0.47284261456810       -0.01649780007216
C           -0.87266901006684       -0.91071109148323        0.01007620004407
N           -2.18545711580866       -1.31586039325525        0.03661320016014
C            0.33750549522617       -1.68755259488094       -0.00661140002892
O            0.51232859599080       -2.88820380013230       -0.00216190000946
N            1.45726310012371       -0.80905779103862       -0.04334550018958
H            2.34319050399855       -1.28530949312163       -0.12853700056219
C            1.42902810000022        0.55559441493004       -0.05630050024625
N            0.33444939521280        1.25997061801081       -0.03547930015518
N            2.64897260533596        1.18669971769034       -0.15512800067849
H           -3.94095872348680       -0.11611808800787        0.04277610018709
H            3.41481100868555        0.75351061579567        0.33250610145430
H            2.57853170502787        2.17634642201881        0.01450610006344
