7

C            0.66671060850547        0.00000000000000        0.37020882649423
C           -0.66671060850547        0.00000000000000        0.37020882649423
Cl           1.65413892133806        0.00000000000000        1.71516792791243
Cl           1.47342447829274        0.00000000000000       -1.20290259457591
Cl          -1.65413892133806        0.00000000000000        1.71516792791243
Cl          -1.47342447829274        0.00000000000000       -1.20290259457591
H            0.00000000000000        0.00000000000000       -1.76494831966149
