29

N           -1.09350080672543       -1.11655627084660       -0.04701877200462
C           -0.35036468205319       -0.17472463140797        0.77941804004326
C           -0.37561982659694        1.25066385835338        0.19618045829730
O            0.65414518435637        1.84924670354512       -0.12578042809819
C            1.07743126284131       -0.65885653434057        0.96236495470951
C            1.80124116885860       -0.93369375460134       -0.37019495526701
C            3.26181167411303       -0.52662441740046       -0.29511876872281
O            4.17542834213889       -1.33591860190628       -0.22526597681563
H           -0.57117605222935       -1.71858286968423       -0.66054938069905
H           -0.86305411166604       -0.13480347657088        1.74315028774132
H            1.61101450202836        0.10928079636504        1.51839098321798
H            1.07269543758165       -1.55990920389961        1.57485900277610
H            1.33008934919407       -0.36510527083169       -1.17226295513439
H            1.78159111926661       -1.99158615786576       -0.62283512623032
C           -2.43646009086408       -1.26870879651715        0.02955317178032
O           -3.14161192789480       -0.54000610199172        0.73013738703953
N           -1.61188734458827        1.76837547926712        0.10122297261661
H           -2.37895686281387        1.17883138153602        0.41081569139528
C           -1.86213710660509        3.08591538888142       -0.44226788744339
H           -2.50475598502832        3.02640929199484       -1.31859629468649
H           -2.33589499836018        3.72515910212179        0.30008830680367
H           -0.90721735370331        3.51624120586713       -0.72598081136763
C           -3.01987392171484       -2.39206248153246       -0.78689269213961
H           -2.29260188611795       -2.87543950469368       -1.43413583424006
H           -3.83612180600075       -1.99844218714312       -1.38658927270017
H           -3.43652727879626       -3.13040475490159       -0.10507385110881
N            3.43590582925450        0.81984619746274       -0.30105336143883
H            4.36187927658554        1.17932873932234       -0.15501728818584
H            2.63150587007127        1.42939887236848       -0.26649760930084
