8

H           -1.45795868437626        0.00408432345947        0.02445936779996
O           -2.42912041812024        0.07330545838443       -0.32631508064020
H            0.00000000000000        0.00000000000000        1.48136827493147
H           -2.45649864187411        0.95674364201118       -0.69941699046463
O            0.00000000000000        0.00000000000000        0.52117713167828
H            1.45795868437626       -0.00408432345947        0.02445936779996
O            2.42912041812024       -0.07330545838443       -0.32631508064020
H            2.45649864187411       -0.95674364201118       -0.69941699046463
