29

N            1.55444319171630       -0.98385530298536       -0.83571766597883
H            1.56495642459723       -1.61235515265478       -1.62222110253644
C            0.32200367093545       -0.24711944315483       -0.58604287786742
H           -0.17142913268640       -0.13761880161609       -1.55441017657479
C           -0.64022440443831       -0.98075170321581        0.36497180193239
C            0.62497014553754        1.17533932750002       -0.09883460916889
H           -0.52670463866944       -2.05009182693023        0.18329591401540
H           -0.33525195117139       -0.78648645649665        1.39244932893541
C           -2.07181981675866       -0.64564199574416        0.14089036345116
O           -0.13384052475186        1.78245980475923        0.65466739636276
N           -2.60534144417202        0.59390450198792        0.37469293981307
C           -3.13512852649632       -1.40245388668643       -0.31499521891332
H           -2.03415980659425        1.37553896254888        0.67416485475763
C           -3.92557395151584        0.54388720226626        0.05903481502421
N           -4.28652181444135       -0.65978664106806       -0.36265741283481
H           -3.12228041983009       -2.44292833238006       -0.59456894600153
H           -4.57505262708145        1.39721484982303        0.15069759323503
C            2.41200196524527       -1.25940093514882        0.20245088689252
C            3.48570376891066       -2.27568846548253       -0.09733151776757
O            2.30864812776786       -0.69830174541895        1.28244061296951
H            3.19731150289588       -3.22571480264660        0.35010716368601
H            4.41098317772856       -1.95433396484846        0.37107552978295
H            3.64408803813627       -2.42303676173843       -1.16299974360779
N            1.72938568436341        1.73896446451193       -0.62428014748744
C            2.17670008658831        3.03883237948675       -0.16742882187969
H            2.37563969914713        1.12407129025411       -1.08758578701447
H            2.61162036256915        2.98140768831730        0.83002204507050
H            2.91501025652966        3.42441666485093       -0.86388688879093
H            1.32676399572633        3.71315707798937       -0.13256834295205
