7

C           -0.74043947362004        0.00000000000000        0.01377789969709
N            0.72220486567815        0.00000000000000       -0.07289145088560
H           -1.14287686128792        0.00000000052918        1.03289405515947
H           -1.12806388038276        0.87763993755080       -0.50307650384573
H           -1.12806388038276       -0.87763993807998       -0.50307650278738
H            1.09314832085253       -0.80760694267617        0.41101797232972
H            1.09314832085253        0.80760694267617        0.41101797127137
