18

C           -2.15168493803421       -0.81748300140245       -1.52890831625566
H           -1.82808446591668       -1.86892874595397       -1.53713776717841
H           -1.79864539007643       -0.35292565197366       -2.46146274249770
H           -3.25028741415597       -0.80680773897305       -1.54513847326117
C           -1.60899174120603       -0.08041295355106       -0.30237619278960
H           -1.97816816672648        0.95875503985032       -0.30169977747029
H           -2.00457339479096       -0.54727884062621        0.61496321159006
C           -0.07455692341866       -0.07152991897727       -0.24853835879107
H            0.32723655226423        0.41739976943754       -1.14916883763458
H            0.29805016801446       -1.10832005897363       -0.25095005905844
C            0.44536958529559        0.65111351162794        0.99182812705131
H            0.15143837703039        0.15529412246212        1.92787781814360
H            0.09822612855168        1.69497169948900        1.03599316563158
O            2.57688070308205        1.42525196441238        2.33374223871092
O            2.68940337625127       -0.76701518061219        1.18893240065329
H            3.12177292205734       -0.99081241825950        0.34056193214320
S            2.23613745070767        0.80381379329334        1.07690865094590
O            2.75047717107071        1.30491460873039       -0.18542701993293
