26

C           -3.24936175493329       -0.21218248897280        0.19088175612488
C           -3.01801114157780       -0.08026016964645        1.55311169340298
C           -1.71870159491917        0.14307692231034        2.04650089801821
C           -0.65890523075466        0.23737713716639        1.15805064871749
C           -0.85035991636768        0.11081434717823       -0.24008280173009
C           -2.18086158199220       -0.12718677966678       -0.72204179358462
C            0.25736839494984        0.19289342932017       -1.20090864723519
O           -2.46179271059741       -0.27740407753702       -2.02665246409778
O            0.06375213984541        0.02152297062715       -2.42105852860413
C            1.68699653144930        0.51391149148512       -0.73639637722547
C            1.82964702696708        1.96164591473950       -0.23658233462852
C            2.26430748611725       -0.53773138320247        0.24139604273359
O            2.83801016184956       -0.21851085971484        1.26502814631190
C            2.09562437156689       -1.98435014609184       -0.18481018236410
H           -4.24729683972599       -0.39006592156654       -0.20169147514359
H           -3.85485186719182       -0.15174408092829        2.24553323524151
H           -1.54519161219762        0.24144451721154        3.11499705252389
H            0.33770493885417        0.41128685453485        1.54860102108568
H           -1.58910208612424       -0.20425641603014       -2.50898707912266
H            2.28669104259067        0.39798228898439       -1.65100726896653
H            1.23053359183328        2.14235332448454        0.66004416691324
H            1.50728295337318        2.65824915172854       -1.01949884900761
H            2.87800858343436        2.15978063771434        0.01118431409513
H            2.38147701095254       -2.11343054834573       -1.23712079994417
H            1.03193644126421       -2.25389045182303       -0.10956157142185
H            2.68509566133409       -2.64132566395917        0.46107119790774
