6

C           -0.34178642099673        0.12129332119690        0.00000000000000
O            1.07982840756939        0.19878835462709        0.00000000000000
H            1.43664403729419       -0.69532471878716        0.00000000000000
H           -0.71318581245288        1.14551846199022        0.00000000000000
H           -0.73075010570698       -0.38513770951353       -0.89146635507637
H           -0.73075010570698       -0.38513770951353        0.89146635507637
