16

C           -1.33469881306562       -0.72430913210369       -1.22753578351383
H           -1.04524073595412       -1.78505963038164       -1.19408744241482
H           -0.96402376503945       -0.28706138374758       -2.16337019335732
H           -2.43459128759945       -0.66461327918074       -1.23525744005966
C           -0.76658827767488        0.01823316543789       -0.02339459937422
H           -1.07044674532205        1.08339806043255       -0.06941796136668
C            0.76664612198288       -0.01887258808186        0.02374154714960
H            1.07039823273665       -1.08400880474092        0.07090635629246
C            1.33465541656550        0.72492893156020        1.22714090633280
H            0.96356748341812        0.28892802456873        2.16339245704646
H            2.43452719825951        0.66493050129943        1.23529568453014
H            1.04549444742784        1.78572021299662        1.19229774274304
O           -1.21262040456273       -0.56578684847904        1.21465700594499
H           -2.17659201847365       -0.67269173748277        1.15363185547608
O            1.21288721973422        0.56382846327878       -1.21486786286220
H            2.17662592756723        0.67243604462405       -1.15313227256684
