5

C            0.68979523541371       -0.08463113036135        0.00000000000000
H            1.53651541309098        0.58351637500989        0.00000000000000
C           -0.61945404085215        0.02293889491987        0.00000000000000
H           -1.26792759531821       -0.84608776540100        0.00000000000000
H           -1.10683376535323        0.99774892902997        0.00000000000000
