16

H           -1.71068987875124       -0.57960895906014        0.00310999986899
H           -0.57960895906014        1.71068987875124       -0.00310999986899
H            2.08175685235349        1.94947386131942       -0.82354394148654
H           -2.08175685235349       -1.94947386131942       -0.82354394148654
H           -1.94947386131942        2.08175685235349        0.82354394148654
H            1.71068987875124        0.57960895906014        0.00310999986899
H            0.57960895906014       -1.71068987875124       -0.00310999986899
H            1.94947386131942       -2.08175685235349        0.82354394148654
N           -1.59669088641405        1.59669088641405        0.00634499933286
N           -1.59669088641405       -1.59669088641405       -0.00634499933286
N            1.59669088641405        1.59669088641405       -0.00634499933286
N            1.59669088641405       -1.59669088641405        0.00634499933286
H            2.08423585179101        1.96544486029477        0.80228194300087
H           -1.96544486029477        2.08423585179101       -0.80228194300087
H           -2.08423585179101       -1.96544486029477        0.80228194300087
H            1.96544486029477       -2.08423585179101       -0.80228194300087
