12

C            1.68364711312109        0.61057847796518        0.00000000000000
C            1.68364711312109       -0.61057847796518        0.00000000000000
C           -0.31304708363867       -1.76337040995378        0.00000000000000
C           -1.37060002948243       -1.15279193198861        0.00000000000000
C           -1.37060002948243        1.15279193198861        0.00000000000000
C           -0.31304708363867        1.76337040995378        0.00000000000000
H            2.14482233615097        1.56898947505582        0.00000000000000
H            2.14482233615097       -1.56898947505582        0.00000000000000
H            0.28637357559326       -2.64196536723894        0.00000000000000
H           -2.43119591174423       -1.07297589218312        0.00000000000000
H           -2.43119591174423        1.07297589218312        0.00000000000000
H            0.28637357559326        2.64196536723894        0.00000000000000
