16

H           -1.02995626201483        0.40494288477234        0.78238177673505
H           -2.61216482474491       -0.74334770537147        0.30593391710822
H            1.41838062087977        1.79549496510063       -0.39836558569334
B            1.68443939888326       -1.50265274556097        2.19383995282512
B           -1.52215618588242       -0.38530873010590       -0.02111420695061
H            2.40499307321241       -1.17729530518636        3.09563048742151
O           -1.66853963775632        0.43542771207268       -1.38052262658827
B           -0.54472101429167        1.14112405409705       -1.98301095139221
F            1.76756499883606        1.72925281848713        0.53091425760702
O            0.60802804720777        0.95709446274820       -1.38860968728462
H           -0.77298692194587       -1.31933713792090       -0.27948630052619
H            0.50703844366762       -1.18736665418845        2.33029419200407
H           -2.55579440264554        0.52734740875919       -1.75739236053315
H           -0.82566802320333        1.80073236963950       -2.93608320966464
P            2.24792766805650       -2.28004005650471        0.65099690550332
Mg           0.89361502174150       -0.19606834083799        0.25459343942868
