18

C            0.83552009332370        1.11516418281209       -1.16884558010365
H            1.48432684946132        1.98060576606785       -1.17071274573887
C            1.38327784024611       -0.16614987160158       -1.16648012401180
H            2.45715181600680       -0.29520733093776       -1.16747336825601
C            0.54755759158598       -1.28131890093826       -1.16855961105533
H            0.97293900876099       -2.27580704255981       -1.17046557213475
C           -0.83552009332370       -1.11516418281209       -1.16884558010365
H           -1.48432684946132       -1.98060576606785       -1.17071274573887
C           -1.38327784024611        0.16614987160158       -1.16648012401180
H           -2.45715181600680        0.29520733093776       -1.16747336825601
C           -0.54755759158598        1.28131890093826       -1.16855961105533
H           -0.97293900876099        2.27580704255981       -1.17046557213475
C            0.65578064063466       -0.11679036965131        2.34050542475526
H            1.04724139270232       -1.12390912928351        2.33603827673210
H            1.37085437771975        0.69327354349077        2.33600378516023
C           -0.65578064063466        0.11679036965131        2.34050542475526
H           -1.37085437771975       -0.69327354349077        2.33600378516023
H           -1.04724139270232        1.12390912928351        2.33603827673210
