16

C            0.36763500160794        1.90918700835032       -0.00903100003950
H            1.00143900438005        1.95059900853144       -0.89421100391106
O           -0.44457100194444        3.07732101345945       -0.06849400029958
C           -0.44457100194444        0.62121400271704       -0.01194000005222
H           -1.09700400479803        0.60760800265753        0.86728800379330
H           -1.09364200478332        0.62079100271519       -0.89011900389317
C            0.44457100194444       -0.62121400271704       -0.01194000005222
H            1.09700400479803       -0.60760800265753        0.86728800379330
H            1.09364200478332       -0.62079100271519       -0.89011900389317
H           -0.98859500432387        3.08992901351460        0.72349900316441
H            1.02443000448061        1.93436700846045        0.86732800379348
C           -0.36763500160794       -1.90918700835032       -0.00903100003950
H           -1.02443000448061       -1.93436700846045        0.86732800379348
H           -1.00143900438005       -1.95059900853144       -0.89421100391106
O            0.44457100194444       -3.07732101345945       -0.06849400029958
H            0.98859500432387       -3.08992901351460        0.72349900316441
