12

C           -1.17494760513894       -1.40687719782000        0.31756580972229
C           -0.76590350334988       -0.32275379307831       -0.46267309369028
C           -0.19678920086071        0.88092401218628        0.08368020869933
C            1.35640510593258        0.55742891077139       -0.05496059190705
H           -1.75229120766409       -2.21725150136438       -0.11643979217595
H           -0.94671640414071       -1.44913519800483        1.37895981436457
H           -0.82253750359758       -0.41909469349968       -1.54627089842968
H           -0.43077750188412        1.04926741292257        1.13397261329306
H           -0.40058260175205        1.76208511604027       -0.52414069395913
H            1.64954830721472       -0.30420329299718        0.54188281070340
H            1.83943870804526        1.45435841469434        0.34312090983406
H            1.64515340719550        0.41525181014954       -1.09469709645461
