4

N            0.87375800381214       -2.11828400922595        0.00000000000000
H            0.20945000089867       -2.88072701259470        0.00000000000000
H            1.46312600639701       -2.22181600968411        0.81507100353464
H            1.46312600639701       -2.22181600968411       -0.81507100353464
