12

N           -1.03059987039833       -0.43231880883480        0.00000000000000
C           -1.81252100021048        0.68361082091125        0.00000000000000
N           -1.08641053131234        1.78101299673799        0.00000000000000
C            0.21700372354883        1.34407755469390        0.00000000000000
C            0.28336283724105       -0.02851148954760        0.00000000000000
C            1.42752400759166       -0.97879906349177        0.00000000000000
H            1.04216506427028        2.03502665050079        0.00000000000000
H           -2.88732754994504        0.63545139395128        0.00000000000000
H            1.42151710671624       -1.61814351894797       -0.88237134949185
H            2.35938184648691       -0.42030633728299        0.00000000000000
H            1.42151710671624       -1.61814351894797        0.88237134949185
H           -1.35561274070500       -1.38295667974210        0.00000000000000
