16

C           -2.43681251690802       -1.25725673049894       -0.09421288166206
C           -1.15737101131206       -0.96562792922342        0.19258171959231
O           -0.39395610797306       -1.77722253277314        1.00332812313832
C           -0.46377690827845        0.19875597586931       -0.31955548264766
C            0.79751299723813        0.61100257767238       -0.05235438147898
N            1.66280730102272        0.02727097511928        0.85029002246896
C            1.34720739964236        1.84702628307845       -0.69749258430066
H           -3.00707931940223       -0.60357722763990       -0.73192308445125
H           -2.91760421901089       -2.14020793436075        0.30122072006747
H           -0.94441921038066       -2.51239753598862        1.28671522437778
H           -1.04320621081273        0.81068637854574       -0.99343598559504
H            1.42599789998697       -0.89990232893595        1.15805432381505
H            2.64015640529741        0.17766287577706        0.67388762169742
H            0.62336669647646        2.29307528502936       -1.37153748724877
H            2.24721100357876        1.61133258204758       -1.26738918679325
H            1.61996580083534        2.57937928628158        0.06182331902040
