16

C           -0.66189469790892       -0.05970978204113       -1.39391038761858
C           -1.48620922249556       -0.11354838896935       -0.14471924963977
C           -0.69162766377088        0.31753646016603        1.08172598478285
C            0.69162766377088       -0.31753646016603        1.08172598478285
C            1.48620922249556        0.11354838896935       -0.14471924963977
C            0.66189469790892        0.05970978204113       -1.39391038761858
H           -1.19027606058303       -0.11879776721813       -2.34176128881391
H           -2.37325455488393        0.51810494176460       -0.26358201045591
H           -1.87128365416649       -1.13326876549585       -0.00731552256280
H           -1.23554010160332        0.06087496946078        1.99496911323166
H           -0.58376903220366        1.40834213156681        1.07459336107647
H            1.23554010160332       -0.06087496946078        1.99496911323166
H            0.58376903220366       -1.40834213156681        1.07459336107647
H            2.37325455488393       -0.51810494176460       -0.26358201045591
H            1.87128365416649        1.13326876549585       -0.00731552256280
H            1.19027606058303        0.11879776721813       -2.34176128881391
