8

O            2.19828984416161       -0.03183999798494       -1.73614987656424
S            1.20023991490066        0.00790999965829       -2.85659979701252
C            2.28234983779265        0.02536999799885       -4.41649968652274
O            0.39148997220356       -1.22134991305345       -2.94329979118914
O            0.43029996961243        1.26467991041825       -2.88489979525207
F            1.50160989363998        0.02303999845943       -5.52455960786217
F            3.06533978259071        1.13252991960931       -4.44249968480813
F            3.08167978106864       -1.06963992383076       -4.44763968413049
