33

N           -0.21956665122171        2.63973850976027        0.15489701922138
C            0.86747627168470        1.94859555841734        0.64554698427186
C            0.54421929489781        0.62154865287504        0.81791197238114
C           -0.82458160820636        0.48289766287900        0.40013000190721
C           -1.70688754570557       -0.60627126016449        0.34098100589994
C           -3.00272245325962       -0.39923127489753       -0.11663896121232
C           -3.43414742293016        0.88533763399003       -0.51764893304208
C           -2.57327048377754        1.97652455686446       -0.46370993697699
C           -1.27238657633102        1.76629957144241       -0.00571296920271
H           -0.23670364984711        3.62189143965787       -0.04927096627307
H            1.80094620524679        2.45424352271795        0.83440497133688
H           -1.41227956640814       -1.60232018941240        0.64444798480684
H           -4.44148635114779        1.03936762341956       -0.87191090798010
H           -2.91613645972955        2.95580348722888       -0.77187691493893
O           -3.80570239634782       -1.51143619582074       -0.14601995948325
C           -5.13458730209277       -1.33395620830807       -0.60603692684915
H           -5.15690230078522       -0.97925923329820       -1.63878585357100
H           -5.68828126301536       -0.63811825757640        0.02807202808774
H           -5.59996726882030       -2.31368113875103       -0.55392193054524
C            1.45748122979678       -0.47556926912883        1.26509794075512
C            1.98573319234003       -1.29531221114437        0.07412002513148
N            2.72947113970121       -0.48981826830875       -0.87782290753096
C            4.04861004587509       -0.13347129335477       -0.76905491500438
C            4.90724798491819       -0.97721623354829        0.15335701934411
H            0.93336026692502       -1.14777422171429        1.95036489194367
H            2.30435916948841       -0.05391429933258        1.81103390182314
H            1.14613925207069       -1.74841217882989       -0.45455393718709
H            2.62043814739849       -2.10725915361900        0.42470900009899
H            2.19170917792270        0.17146968486012       -1.41855386885226
O            4.51496001295140        0.79251464090407       -1.41806986908739
H            4.87400098728110       -2.02782415928608       -0.13406596006202
H            4.57226100889427       -0.90104423903299        1.18785094601967
H            5.92719591223338       -0.61434325948823        0.08073002476966
