12

C            0.51541269670085       -0.47346037145799        1.75675726850814
H            1.57503554517165       -0.39846780181859        1.52607177693323
H            0.28802069560529       -1.48051408903426        2.09854084740094
H            0.27008951205518        0.20939585420761        2.56665472669531
C           -0.37521760632152       -0.15595382107334        0.57695846224048
O           -1.59760638420010       -0.18354665387628        0.66702226184752
N            0.28629698392159        0.15507098370786       -0.56793022126362
H            1.29352588561352        0.15590889983727       -0.56375064682842
C           -0.41840657002196        0.48156896770748       -1.78566339805515
H           -1.48065449147840        0.40841982974562       -1.57376305187116
H           -0.19058754408429        1.49443794489033       -2.11520415948431
H           -0.16590872296180       -0.21285974283573       -2.58569386612293
