26

C            2.35979348627910        0.63040080135790        0.29012817181609
C            1.48261954853035       -0.58489111215220        0.00065819208034
C            0.12944264438314       -0.22720113782549       -0.62704976334535
C           -0.91670928114897        0.36533882043164        0.35194416751941
C           -1.84656221491890       -0.82279009557780        0.64273214670892
O           -1.26273025661246       -1.53504304507350        1.73384706920286
C           -1.78811821948428       -1.59036104096616       -0.67569675975519
O            3.61304639745198        0.24721282847350        0.83639813313514
O           -1.70898122494755        1.38207774781770       -0.24700979001628
O            2.24002149495657       -1.39272505491817       -0.90581574331285
O           -0.44118331508842       -1.45512505059145       -1.13717072714036
C           -1.08457326941008        2.65653765744282       -0.29843578647887
H            2.49961747641052        1.20164376081946       -0.64145176194473
H            1.88714651994720        1.28286475522722        1.03033411900378
H            1.30707156108501       -1.14045307286270        0.93267012600740
H            0.28108663409491        0.45162681416552       -1.47679170270840
H           -0.46542831302916        0.72841679456814        1.28488310085511
H           -2.85575614315707       -0.47176812029911        0.88744112912450
H           -1.75060922171126       -2.35596898655700        1.87902405883415
H           -2.00702920378529       -2.65853396491589       -0.57382976670684
H           -2.48748116937494       -1.14759007214757       -1.39918370857144
H            3.96349937228875       -0.45530912150835        0.26870517328072
H            1.66029253596785       -2.10877600397926       -1.20516572193137
H           -0.82146028783987        3.00827763253234        0.70993314178725
H           -0.17824033328474        2.64888765789439       -0.92016074211813
H           -1.80877521760238        3.34325060864397       -0.74093675532585
