10

C           -1.20636621527635        0.24908099108942       -0.35084289153450
C            0.20343169088976        0.39973009174832       -0.18374299080365
C            1.06835989467275       -0.52194351228285        0.47990301209898
H            0.57274039250503       -1.30792511572055        1.04636781457656
H            1.90165359831737       -0.04084411017864        1.00058891437633
H           -1.57660571689569        0.65508669286519       -1.29741189567456
H           -1.58420241692891        0.99203149433890        0.39549451172980
H           -1.61054931704415       -0.72651221317759       -0.08845359038687
H            0.66089979289062        1.29941899568334       -0.60233959263449
H            1.57063829686959       -0.99812331436555       -0.39956329174760
