16

H            2.89524086823756        2.42671579533805        0.14267253854800
Si           3.23227389175505        0.84617063804942        2.70645713586462
H            0.88735907130310       -1.43460119207111        2.07829893075614
Al          -2.19772659862777       -2.19354368680569       -2.27623657523241
H           -3.06225172785092        0.53253843597155       -0.52646368436220
H            1.18765979071171        1.23154272635308       -0.41860306098977
Si           1.66691342267948       -0.28406511941530        1.53929212405507
H           -2.84490998995949       -0.63148372743496        0.62994071394403
N           -2.81634661096844       -0.45095261329737       -0.37869517886358
H            4.04515508846642        3.36766329986298        1.63686545817499
C            0.79851404929273        0.32545313065451        0.05988384354807
S           -4.07099898749357       -1.50563308419142       -1.21054891277171
F           -2.15716213771284       -3.34460982332465       -3.46429058532212
N           -0.26702459872753       -0.18744001409544       -0.48815600369307
B           -1.29749057185291       -0.81041551622215       -1.00699020783119
P            4.00079504074740        2.11266075062853        0.97657346417510
