25

C           -0.23516402602855        0.00208609300912        0.13275518058064
C           -0.23817760204173        0.00118928500520        1.52560369667262
C            0.95584575618064       -0.00213788700935        2.24272320780912
C            2.16545672047118       -0.00462513602023        1.55225177578917
C            2.18287704454737       -0.00379148501658        0.15897686069532
C            0.98104502029085       -0.00042607900186       -0.54603857438824
Cl          -1.74895513264951        0.00426049301864        2.37848355740291
H            0.93082256107119       -0.00276333201209        3.32293355453370
H            3.09365256853088       -0.00721745603157        2.10716225821621
H            3.12411266866411       -0.00574578802513       -0.37231310562841
H            0.98559253531074        0.00025353400111       -1.62746680111815
H           -1.17288026912989        0.00469974702056       -0.40401829576708
N           -4.40362787726040        0.00335603301468        3.89434965203294
C           -5.23171766188226       -1.07421379869835        3.38878518682172
C           -4.11402816399376       -0.20313133788845        5.30001483618098
C           -5.06499990315308        1.27902045459413        3.69996779218276
H           -5.02724097098793       -0.22005999696249        5.91698104787944
H           -3.59399824771928       -1.15052081403210        5.43239568175998
H           -3.47036342717853        0.59629826660806        5.66350962577081
H           -6.02650295135846        1.33744172084964        4.23567428952581
H           -4.42418822035032        2.08313245911112        4.05800836574874
H           -5.25410280398017        1.43669671928376        2.63938077854401
H           -6.20167602412463       -1.13541152196601        3.90871125009575
H           -5.42151123971237       -0.92431343904272        2.32718208517853
H           -4.71515599262295       -2.02433042085393        3.51479312737285
