5

F            0.00000000000000        0.00000000000000        0.75074794676131
C            0.00000000000000        0.00000000000000       -0.63355495508137
H            0.00000000000000        1.03138992661779       -0.98513493026611
H           -0.89320993661927       -0.51569496357348       -0.98513493026611
H            0.89320993661927       -0.51569496357348       -0.98513493026611
