72

C           -1.32908090557539       -0.56817325961224        0.22240798416459
C           -0.71916454892265       -0.07963029459109       -0.97211933097923
C            0.71916454892265        0.07963029459109       -0.97211933097923
C            1.32908090557539        0.56817325961224        0.22240798416459
C            0.62035335582581        0.33795787584207        1.42888609879506
C           -0.62035335582581       -0.33795787584207        1.42888609879506
C           -2.55145971904708       -1.57377668819461        0.20796488542959
C           -1.53739199090743        0.62931395534306       -2.13435814822643
C            1.53739199090743       -0.62931395534306       -2.13435814822643
C            2.55145971904708        1.57377668819461        0.20796488542959
C            1.19979741480020        0.67318755211447        2.77826290254336
C           -1.19979741480020       -0.67318755211447        2.77826290254336
C           -2.12890164907258       -2.83436279851177        1.02451922729748
C           -2.84266799829471       -2.14568244740460       -1.20017301473013
C           -3.88496662418454       -1.05205152540256        0.79924134313556
O           -0.35363177515166       -1.49147869433519        3.47873425326137
C           -0.77436344501715        1.95745436114081       -2.43069052766712
C           -1.79234737291908       -0.05292109618270       -3.50212825116617
C           -2.90511669361753        1.12039882045090       -1.58874228698247
C            1.79234737291908        0.05292109618270       -3.50212825116617
C            0.77436344501715       -1.95745436114081       -2.43069052766712
C            2.90511669361753       -1.12039882045090       -1.58874228698247
C            2.84266799829471        2.14568244740460       -1.20017301473013
C            3.88496662418454        1.05205152540256        0.79924134313556
C            2.12890164907258        2.83436279851177        1.02451922729748
O           -2.23756064114809       -0.25502598166007        3.23998176996667
C           -0.76580264576205       -1.80042197209046        4.83007405680720
O            0.35363177515166        1.49147869433519        3.47873425326137
C            0.76580264576205        1.80042197209046        4.83007405680720
O            2.23756064114809        0.25502598166007        3.23998176996667
H           -1.16661001733402       -3.22501427090345        0.67133065234774
H           -2.05639635414392       -2.65518491152140        2.09744945119818
H           -2.89388869463738       -3.60918684360672        0.88571803722943
H           -1.92177976357787       -2.45698362556774       -1.70196347930894
H           -3.48828005239331       -3.02562408515594       -1.08820432294814
H           -3.37910626032255       -1.44992699698764       -1.84126556947445
H           -3.80748692959154       -0.88305533709821        1.87278226717156
H           -4.20761190122036       -0.11664169168655        0.33691127603365
H           -4.66246476894618       -1.80763127179930        0.61614805649886
H           -0.66840235235341        2.54854801881269       -1.51338099248346
H           -1.35471570385058        2.54165781931216       -3.15780467563710
H            0.21783178453051        1.78659407308460       -2.84509199822799
H           -0.87770603760539       -0.17656448765401       -4.08291981016546
H           -2.45906672530834        0.59767395776827       -4.08374401002157
H           -2.26738253875842       -1.03083232676971       -3.41968295712585
H           -2.79312270187309        1.55569738953071       -0.58984005802633
H           -3.66120894020537        0.33939167567407       -1.54371089016189
H           -3.28403576695352        1.89643406539655       -2.26686793879214
H            2.26738253875842        1.03083232676971       -3.41968295712585
H            0.87770603760539        0.17656448765401       -4.08291981016546
H            2.45906672530834       -0.59767395776827       -4.08374401002157
H            0.66840235235341       -2.54854801881269       -1.51338099248346
H            1.35471570385058       -2.54165781931216       -3.15780467563710
H           -0.21783178453051       -1.78659407308460       -2.84509199822799
H            3.66120894020537       -0.33939167567407       -1.54371089016189
H            3.28403576695352       -1.89643406539655       -2.26686793879214
H            2.79312270187309       -1.55569738953071       -0.58984005802633
H            1.92177976357787        2.45698362556774       -1.70196347930894
H            3.37910626032255        1.44992699698764       -1.84126556947445
H            3.48828005239331        3.02562408515594       -1.08820432294814
H            3.80748692959154        0.88305533709821        1.87278226717156
H            4.66246476894618        1.80763127179930        0.61614805649886
H            4.20761190122036        0.11664169168655        0.33691127603365
H            1.16661001733402        3.22501427090345        0.67133065234774
H            2.89388869463738        3.60918684360672        0.88571803722943
H            2.05639635414392        2.65518491152140        2.09744945119818
H            0.05497869593186       -2.38332733051707        5.25489982681726
H           -0.93288123396933       -0.87897013771433        5.39957631640906
H           -1.69514897966678       -2.38348843058127        4.81779965804761
H           -0.05497869593186        2.38332733051707        5.25489982681726
H            1.69514897966678        2.38348843058127        4.81779965804761
H            0.93288123396933        0.87897013771433        5.39957631640906
