13

P            0.00000000000000        0.00000000000000        0.61294095631590
C            1.40733790010665       -0.81252694239405       -0.28253997975883
C           -1.40733790010665       -0.81252694239405       -0.28253997975883
C            0.00000000000000        1.62505288464317       -0.28253997975883
H           -0.88348293715595        2.20180484345885       -0.00074999968595
H            0.88348293715595        2.20180484345885       -0.00074999968595
H            0.00000000000000        1.48338489449789       -1.36796690288611
H            1.46507789617190       -1.86602086728746       -0.00074999968595
H            1.28464890883995       -0.74169194717648       -1.36796690288611
H            2.34855983318293       -0.33578397617139       -0.00074999968595
H           -2.34855983318293       -0.33578397617139       -0.00074999968595
H           -1.46507789617190       -1.86602086728746       -0.00074999968595
H           -1.28464890883995       -0.74169194717648       -1.36796690288611
