12

O           -0.01773381608138        2.66104630141239        0.00000000000000
C            0.04044974591641        1.43946639764626        0.00000000000000
C            1.23975948124072        0.62456019596289        0.00000000000000
C            1.18016401309246       -0.73501102034257        0.00000000000000
C           -0.06559823286406       -1.42503868229957        0.00000000000000
C           -1.20531196189570       -0.68575173606858        0.00000000000000
N           -1.14500916697038        0.67498889902899        0.00000000000000
H            2.18017027641826        1.15832284167630        0.00000000000000
H            2.09903268902545       -1.31073746613383        0.00000000000000
H           -0.11364869367819       -2.50383820893452        0.00000000000000
H           -2.19652753826455       -1.11955310500574        0.00000000000000
H           -1.99574679593908        1.22154558305794        0.00000000000000
