16

C           -0.17862900078128        1.85323000810558        0.59860200261814
H            0.28037800122630        2.38106301041419        1.43295000626737
O            0.18162300079438        2.59493501134962       -0.56427600246801
C            0.31475000137664        0.41143800179953        0.56095400245347
H            1.40240600613378        0.41785100182758        0.44985900196757
H            0.08145100035625       -0.04423800019349        1.52763000668148
C           -0.31475000137664       -0.41143800179953       -0.56095400245347
H           -0.08145100035625        0.04423800019349       -1.52763000668148
H           -1.40240600613378       -0.41785100182758       -0.44985900196757
H           -0.36871400161267        2.28739301000450       -1.28829700563470
H           -1.26303100552419        1.87212500818822        0.75005600328056
C            0.17862900078128       -1.85323000810558       -0.59860200261814
H           -0.28037800122630       -2.38106301041419       -1.43295000626737
H            1.26303100552419       -1.87212500818822       -0.75005600328056
O           -0.18162300079438       -2.59493501134962        0.56427600246801
H            0.36871400161267       -2.28739301000450        1.28829700563470
