4

H            1.05921412310582        0.82708169910808        0.00000000000000
N            0.61625758665632       -0.10229431846312        0.00000000000000
N           -0.61625758665632        0.10229431846312        0.00000000000000
H           -1.05921412310582       -0.82708169910808        0.00000000000000
