12

C            0.73712831835872        0.63544594855839       -0.01465953937138
O            1.41523703125878        0.65113062572607       -1.03679118598126
C           -0.22746629995727       -0.50230330086359        0.32514185869045
H           -1.00638708028762       -0.15112804035683        1.02053169221141
H            0.36160585695308       -1.25611395344485        0.87530965531168
N            0.81469797434759        1.63338227506114        0.92155866455240
H            0.27047812560810        1.62008380838251        1.77459058531488
H            1.48648551766421        2.37930745984585        0.77691386743668
C           -0.84667367284313       -1.13400288999837       -0.92143443895858
H           -1.43535960505642       -2.02275291695655       -0.65643129761682
H           -1.50951335838306       -0.42545554302822       -1.43721143807043
H           -0.06023280766300       -1.42759347292553       -1.62751842351904
