17

C            0.00000000000000        0.00000000000000        0.00000000000000
C            0.88149425290781        0.88149425290781       -0.88149425290781
H            0.27529540346149        1.52302219766764       -1.52302219766764
H            1.52302219766764        1.52302219766764       -0.27529540346149
H            1.52302219766764        0.27529540346149       -1.52302219766764
C           -0.88149425290781        0.88149425290781        0.88149425290781
H           -1.52302219766764        0.27529540346149        1.52302219766764
H           -0.27529540346149        1.52302219766764        1.52302219766764
H           -1.52302219766764        1.52302219766764        0.27529540346149
C            0.88149425290781       -0.88149425290781        0.88149425290781
H            0.27529540346149       -1.52302219766764        1.52302219766764
H            1.52302219766764       -0.27529540346149        1.52302219766764
H            1.52302219766764       -1.52302219766764        0.27529540346149
C           -0.88149425290781       -0.88149425290781       -0.88149425290781
H           -0.27529540346149       -1.52302219766764       -1.52302219766764
H           -1.52302219766764       -1.52302219766764       -0.27529540346149
H           -1.52302219766764       -0.27529540346149       -1.52302219766764
