18

C            1.29136990816071        0.23957998309990       -0.37257997379986
N            0.06440999540314       -0.21102998514142        0.11085999196951
C            0.12790999068637       -0.33416997615294        1.44768989715347
N            1.37448990261576        0.01780999879375        1.81526987128307
C            2.12174984923031        0.38924997247828        0.70221995013512
C           -1.14251991908809       -0.48622996529963       -0.69656995045480
H            1.69218987997125        0.01780999879375        2.78159980248767
H           -0.69596995081187       -0.65557995354953        2.11726984977976
H            3.14462977654689        0.72859994845896        0.77020994525984
H            1.45831989625138        0.42225997016381       -1.42440989883687
H           -1.06563992409454       -1.48703989450557       -1.13385991974386
H           -2.01310985726257       -0.39976997150936       -0.04121999690069
H           -1.21191991377057        0.26793998103916       -1.48621989472898
O           -2.11621984947858       -0.99147992959897        3.11185977924771
Cl          -3.04984978347463        0.18535998705651        2.89079979465132
O           -2.51682982154638        0.95603993216894        1.71472987846365
O           -4.39201968839111       -0.32143997698185        2.59169981575172
O           -3.04238978394542        1.04016992589061        4.08107971018764
