6

C            0.66681207457084        0.00000000000000        0.00000000000000
H            1.23303978750975       -0.92249421869219        0.00000000000000
H            1.23303978750975        0.92249421869219        0.00000000000000
C           -0.66681207457084        0.00000000000000        0.00000000000000
H           -1.23303978750975       -0.92249421869219        0.00000000000000
H           -1.23303978750975        0.92249421869219        0.00000000000000
