24

C            0.83660778894660       -0.22447840270251        1.12131105791001
C            0.38256610966763       -1.35878606034287        0.18126710505584
C           -0.59186514362832       -0.88901845940106       -0.92509851203586
O           -0.15285329255036        0.32316199318177       -1.57075682045612
C            1.26414220066580        1.01291691481720        0.31063296914321
C            0.24595646362601        1.42540300570858       -0.77921659697509
O           -0.81174845665785        2.17509582920413       -0.24449359302501
O            1.52054544063123       -1.99625035122891       -0.38583064897201
C           -2.08223111481670       -0.85407632617884       -0.55296488227973
H           -1.54637343162815        1.56562324955647        0.00815161612978
O           -2.46122181810915        0.10588576640448        0.43434035454380
H            2.12042608112758       -1.29929421465407       -0.71142305201062
H           -1.91964829554086       -0.04722816382608        1.23607226863496
O           -0.24040670139855        0.05813989052094        2.02784403148791
O            2.52080433972416        0.64123775409169       -0.27613945600000
H            0.75675931406228        2.09008914759715       -1.48843623813828
H           -0.11757539162523       -2.12568879038322        0.78349302931699
H            2.78706040108917        1.31321786721790       -0.92432125178589
H           -0.51173712611975       -1.64400137698472       -1.71584747006286
H           -2.65403652350630       -0.59659193430818       -1.44843551474499
H           -0.07330010384150        0.89763631189716        2.48610512272087
H            1.70354641389102       -0.58403061883990        1.68835447231760
H            1.40504715854877        1.87532475252825        0.97940006429771
H           -2.38046431255757       -1.86428778387535       -0.23400805507226
