8

C           -0.88317097477602       -0.39530458934004        0.02246957379379
C            0.36862562487686        0.41030308528376       -0.19444896154833
O            0.45756943342173        1.38094608265189       -0.89288700335703
O            1.40607405241886       -0.08072373911935        0.49420979138749
H           -1.13885701095153       -0.37905458462059        1.08081746089292
H           -0.70058354158088       -1.42803505949995       -0.26997437559742
H           -1.69728820665909        0.02183232444616       -0.56430954898737
H            2.18763062325007        0.47003648019811        0.32412306341596
