33

N            0.92691353594319        0.61242607104448        1.03891697342327
C            1.14721523987551       -0.73864062154936        0.53123074112721
C            2.61528111276090       -1.12131428141030        0.32368379707870
O            3.04021463307895       -2.17969105069547        0.77879393729277
C            0.32602482883213       -1.03487095270051       -0.73733467890609
C           -1.12308610311390       -0.71133645336430       -0.52518804294548
C           -1.67576111227548        0.47373837437119       -1.02108293384551
C           -1.94181159083707       -1.55541743369693        0.22881381365431
C           -3.00277184576532        0.81050910001025       -0.77310091349019
C           -3.27112480095960       -1.22917650393107        0.48407356722232
C           -3.80417610719046       -0.04083630337270       -0.01477660859765
O           -5.10000160443685        0.33770392409737        0.20047098444030
H            0.49028962952469        0.67949769508796        1.94195962416802
H            0.80342547272760       -1.40646703112851        1.31849037678916
H            0.72326056159845       -0.46073232717489       -1.57161898206546
H            0.46252451382969       -2.09473502120638       -0.95954571066940
H           -1.05804783428055        1.13660974773384       -1.61442727357410
H           -1.54164178071337       -2.48569511939390        0.61497876122769
H           -3.43296009053334        1.72187281869836       -1.16485654666592
H           -3.89441413294231       -1.90005954982320        1.06376340825232
H           -5.53184956831154       -0.35225356099301        0.71474529813356
N            3.33462664986292       -0.25377205308589       -0.41759654493882
H            2.85489073091366        0.56994138409447       -0.76543471899811
C            4.72318099809654       -0.49764148253895       -0.73921269259598
H            4.96784177363782       -1.50333491525159       -0.41161348441802
H            4.88504775487679       -0.41832602674008       -1.81227049909548
H            5.37838801375648        0.20912959966571       -0.23148505701604
C            0.97895846188591        1.75220715912414        0.31030283471492
O            1.44917795733024        1.80194938142658       -0.82874770220082
C            0.38936304387529        2.96749560516877        0.97869077952401
H            0.43571129458081        2.91126688976820        2.06397491449552
H           -0.65597076657747        3.04639833021684        0.68008489468014
H            0.91564915200660        3.85103962022177        0.63243568518581
