8

Cl          -3.00554635802227        0.07789963877282       -0.22132558576921
H           -1.68731008190562        0.21457614714881       -0.51341773426023
C            0.04459308848494        0.14439941562554       -0.63443797058995
Cl           0.93227180152434       -0.04027378286247       -2.05248448758893
C            0.83121740437546       -0.04602238831300        0.58614271353606
H            1.91423816549822       -0.14489768720719        0.49862569398212
H            0.55869673347484        0.74632700580925        1.29015431869245
H            0.41183924657009       -0.95200834897377        1.04674305199771
