20

C            0.82236841261623        0.04567395317076       -1.12376955673479
C           -0.51496593414330        0.77309404838505       -0.76433142682258
C           -0.51496593414330        0.77309404838505        0.76433142682258
C            0.82236841261623        0.04567395317076        1.12376955673479
C            0.67473529409551       -1.38704791382201       -0.66644311977423
C            0.67473529409551       -1.38704791382201        0.66644311977423
C            1.70910466475602        0.60282536499844        0.00000000000000
C           -1.76441453689163        0.02252699268902       -1.14159373656416
C           -1.76441453689163        0.02252699268902        1.14159373656416
O           -2.43212129241139       -0.36587288372433        0.00000000000000
O           -2.18347093338456       -0.23925248771274        2.22081185225787
O           -2.18347093338456       -0.23925248771274       -2.22081185225787
H            1.14107898556226        0.20000630642487       -2.15197896117800
H           -0.54770786337949        1.76567946584760       -1.21621645768395
H           -0.54770786337949        1.76567946584760        1.21621645768395
H            1.14107898556226        0.20000630642487        2.15197896117800
H            0.49020403118515       -2.22773162287128       -1.32217133085123
H            0.49020403118515       -2.22773162287128        1.32217133085123
H            1.78008623025345        1.69410504056598        0.00000000000000
H            2.70727548608162        0.16304499393738        0.00000000000000
