6

P            0.01720000002991       -1.94056500845410        0.00000000000000
H           -0.80391000346949       -1.56718700684462        1.08138400468504
H           -0.80391000346949       -1.56718700684462       -1.08138400468504
B           -0.01720000002991       -3.80540301661140        0.00000000000000
H            0.04881400018668       -4.39287201920191        1.03370600451023
H            0.04881400018668       -4.39287201920191       -1.03370600451023
