22

C            0.42047211990526        1.88176953662076        0.00000000000000
C           -0.42047211990526        1.99728656956254        1.26823136165921
C           -0.42047211990526        1.99728656956254       -1.26823136165921
H            1.19098633963138        2.66126175890713        0.00000000000000
H            0.95226127155460        0.92338526332008        0.00000000000000
H            0.19598505588870        1.91260554541421        2.16788361821139
H           -1.17929133629634        1.20933434486365        1.30485237210235
H           -0.93871826769256        2.96066284428678        1.30485237210235
H            0.19598505588870        1.91260554541421       -2.16788361821139
H           -1.17929133629634        1.20933434486365       -1.30485237210235
H           -0.93871826769256        2.96066284428678       -1.30485237210235
C           -0.42047211990526       -1.88176953662076        0.00000000000000
C            0.42047211990526       -1.99728656956254       -1.26823136165921
C            0.42047211990526       -1.99728656956254        1.26823136165921
H           -0.95226127155460       -0.92338526332008        0.00000000000000
H           -1.19098633963138       -2.66126175890713        0.00000000000000
H           -0.19598505588870       -1.91260554541421       -2.16788361821139
H            0.93871826769256       -2.96066284428678       -1.30485237210235
H            1.17929133629634       -1.20933434486365       -1.30485237210235
H           -0.19598505588870       -1.91260554541421        2.16788361821139
H            0.93871826769256       -2.96066284428678        1.30485237210235
H            1.17929133629634       -1.20933434486365        1.30485237210235
