28

N           -1.29005845629897       -1.16855655281330       -0.36490731434138
H           -1.07731016499067       -1.62895600414208       -1.23392477990327
C           -0.30138845537285       -0.25504462082684        0.19102881762218
H           -0.41210805959194       -0.30450570651893        1.27582513954186
C            1.08752029783836       -0.69302236604175       -0.22970099089551
C           -0.60947911055904        1.17482673395649       -0.27596229428536
H            1.17957222347965       -0.60187765355575       -1.31192934369141
H            1.22065872178802       -1.74293788461798        0.03021265316670
C            2.16838135825206        0.14210910096988        0.43129316484351
O            0.03130337406118        1.72554260028643       -1.16711352662634
H            2.07828106085638        0.12588359158397        1.51935165635448
H            2.09277781866639        1.18432817984854        0.12305868261642
C            3.54454421545715       -0.34700358747303        0.08077543741810
O            4.49879009367237        0.40942520537861        0.67275357037551
O            3.80465370127867       -1.28856414475895       -0.63208538702922
C           -2.50232629655644       -1.35854352524916        0.21000653081187
C           -3.39390504022013       -2.37558539869510       -0.45418181415527
O           -2.85135364023067       -0.75088340543086        1.22272221493262
H           -3.57575779776029       -3.18427935629733        0.24999978785865
H           -2.97195649926639       -2.78566858982937       -1.36809722815748
H           -4.34993870173341       -1.90751183019729       -0.67405408273364
N           -1.64744562911061        1.73980625939906        0.37751725315704
C           -2.16715477673188        3.02882678981298       -0.02670086977285
H           -2.20006471802587        1.12545554866871        0.96412270992431
H           -2.65065279826441        3.50466175233698        0.82153400802975
H           -1.33894687640176        3.64369567664646       -0.36525763569703
H           -2.88399974792135        2.94167553660977       -0.84369963283774
H            5.34315586356069        0.02827665261872        0.38944427177663
