10

N            0.50602153602035       -1.59865512685856        0.00000000000000
H            1.10891482131987       -1.53020678357814        0.80983940498098
C           -0.46425360328851       -0.53758379899415        0.00000000000000
C            0.09574843474890        0.86995135871361        0.00000000000000
H           -1.12080228399368       -0.63670372229327       -0.87043569952399
H           -1.12080228399368       -0.63670372229327        0.87043569952399
O            1.26614327478573        1.14931431377622        0.00000000000000
O           -0.87195318321952        1.77725692466529        0.00000000000000
H           -0.50793153369934        2.67353734044040        0.00000000000000
H            1.10891482131987       -1.53020678357814       -0.80983940498098
