4

C            0.58350324612328        0.00000000000000        0.00000000000000
H            1.14991420592043       -0.93673093361904        0.00000000000000
H            1.14991420592043        0.93673093361904        0.00000000000000
N           -0.66585666494542        0.00000000000000        0.00000000000000
