18

C            0.00000000000000        1.27276572132957        0.24114304354314
C           -1.22794371970316        0.66366691900386        0.86959244098694
C           -1.22794371970316       -0.66366691900386        0.86959244098694
C            0.00000000000000       -1.27276572132957        0.24114304354314
C            0.00000000000000        0.76796175590082       -1.23860969501769
C            0.00000000000000       -0.76796175590082       -1.23860969501769
C            1.22794371970316        0.66366691900386        0.86959244098694
C            1.22794371970316       -0.66366691900386        0.86959244098694
H            0.00000000000000        2.36163385521219        0.28107597587527
H           -2.04000938613876        1.27863458041089        1.23874609964932
H           -2.04000938613876       -1.27863458041089        1.23874609964932
H            0.00000000000000       -2.36163385521219        0.28107597587527
H            0.88090582270125        1.16144729989089       -1.75014320283662
H           -0.88090582270125        1.16144729989089       -1.75014320283662
H            0.88090582270125       -1.16144729989089       -1.75014320283662
H           -0.88090582270125       -1.16144729989089       -1.75014320283662
H            2.04000938613876        1.27863458041089        1.23874609964932
H            2.04000938613876       -1.27863458041089        1.23874609964932
