16

N           -0.50512077869166        1.84989241275478        0.00000000000000
N            1.48746854074931        0.70961929738586        0.00000000000000
C           -0.54799867462353       -0.52345596304570        0.00000000000000
C            0.85752116078519       -0.46954727384036        0.00000000000000
C           -1.17411900827438        0.68446595696499        0.00000000000000
C            0.85985426103635        1.94998119069007        0.00000000000000
C           -1.27258940108740       -1.83153109615104        0.00000000000000
O            1.51846071142904       -1.57753298886989        0.00000000000000
O            1.47171390926079        2.98373508117792        0.00000000000000
H           -1.02672016885380        2.71873535841117        0.00000000000000
H            2.50444058644896        0.74171251943710        0.00000000000000
H           -2.25270671634311        0.76758145674716        0.00000000000000
H           -1.02777550429586       -2.42410648119495       -0.88204551014024
H           -1.02777550429586       -2.42410648119495        0.88204551014024
H           -2.34809880835931       -1.66393403647499        0.00000000000000
H            2.48344539511527       -1.49150895279716        0.00000000000000
