4

N            0.00000000000000        0.00000000000000       -0.29091627180831
H            0.47158681515629       -0.81681232403028        0.09697209060277
H            0.47158681515629        0.81681232403028        0.09697209060277
H           -0.94317363031257        0.00000000000000        0.09697209060277
