4

Be           0.72790380045332       -0.72790380045332        0.72790380045332
Be          -0.72790380045332        0.72790380045332        0.72790380045332
Be          -0.72790380045332       -0.72790380045332       -0.72790380045332
Be           0.72790380045332        0.72790380045332       -0.72790380045332
