8

C           -0.83272746097955       -0.23005227078873       -0.00228000980905
N            0.35200427023409        0.61703762312538       -0.08274828311344
H            0.39045231608798        1.19975165035189        0.74965853418677
O            1.51457955184029       -0.23787549450355        0.06201230571401
H            2.02031223618074       -0.04518879966635       -0.73586931782535
H           -1.70520870971331        0.42686876183690        0.04164410293475
H           -0.83437575655879       -0.89229768531320        0.87207049121733
H           -0.90503644709146       -0.83824378504234       -0.90448782330503
