7

C            0.12541253354774        0.42066184175745        0.00000000000000
O            1.14260105941737       -0.23243054232963        0.00000000000000
H            0.17437353736441        1.52631487357954        0.00000000000000
C           -1.25797361693218       -0.16564868629462        0.00000000000000
H           -1.21079869309611       -1.25199772769994        0.00000000000000
H           -1.80232528334448        0.18816448022140        0.87843993760388
H           -1.80232528334448        0.18816448075057       -0.87843993760388
