33

N            1.72213778659000       -2.95749572951355        0.02012914999188
C            0.37719688225103       -3.01860972507902        0.31722112892230
C           -0.15222008032652       -1.74884481537183        0.36497612570424
C            0.93283384271846       -0.85143587875112        0.07893314574143
C            1.03280583577007        0.55045802136740       -0.00840684805431
C            2.26240074834858        1.10947898172597       -0.30942182667416
C            3.40522666733394        0.30718303881280       -0.52447581132584
C            3.33477767249521       -1.07401686311703       -0.43535681741140
C            2.09131776082575       -1.64091982278013       -0.12984483899392
H            2.33483274323752       -3.74825567325944       -0.05818584447840
H           -0.10597108325688       -3.96828065761188        0.48165011730939
H            0.17998289650754        1.19949897551431        0.14138614168745
H            4.33772060126521        0.79203200452419       -0.78015579304650
H            4.21090061032703       -1.68614381946757       -0.60643980546341
O            2.36351974147166        2.48265188450372       -0.44515681687097
C            2.97297469793067        3.09946484052618        0.68636310294254
H            3.98571562587037        2.72294986741445        0.84575009139331
H            2.38186474001316        2.92295185292752        1.58818603897370
H            3.01197269506891        4.16536976492605        0.47796011752098
C           -1.57937897857253       -1.37314284208054        0.61141310825564
C           -2.27307192958854       -0.90637487527944       -0.67928880046137
N           -3.65435283161569       -0.50679990345559       -0.48650981399678
C           -4.11320579856304        0.73230000869190       -0.12601183964781
C           -3.10569187038341        1.86462492822476       -0.16156283676041
H           -1.64001397456858       -0.57374989867006        1.35458005541422
H           -2.12697693973626       -2.22549078129502        1.01984007920362
H           -2.24823093099704       -1.71689281755938       -1.40911674855994
H           -1.71885396892487       -0.07884293367912       -1.11779076918789
H           -4.34767478231008       -1.23187785213200       -0.38712282106005
O           -5.28275171593448        0.91252399594741        0.18086413854003
H           -2.69133489992174        1.99067591936923       -1.16164776619938
H           -2.27924392924925        1.68099894111528        0.52481611418970
H           -3.61920783407625        2.77401186351157        0.13242714240209
