14

C           -1.44209967817016       -0.69447860279726        0.00000000000000
C           -1.44209967817016        0.69447860279726        0.00000000000000
C           -0.35616920703555        1.56047925570364        0.00000000000000
C            0.99796394152460        1.25140720108940        0.00000000000000
C            1.60060988736223        0.00000000000000        0.00000000000000
C            0.99796394152460       -1.25140720108940        0.00000000000000
C           -0.35616920703555       -1.56047925570364        0.00000000000000
H           -2.42012995814478        1.16547316205825        0.00000000000000
H           -2.42012995814478       -1.16547316205825        0.00000000000000
H           -0.59772273800737       -2.61879442382500        0.00000000000000
H            1.67478189517143       -2.10011007078056        0.00000000000000
H            2.68614160196143        0.00000000000000        0.00000000000000
H            1.67478189517143        2.10011007078056        0.00000000000000
H           -0.59772273800737        2.61879442382500        0.00000000000000
