33

N           -0.24427834608332        2.63439902531807        0.27466258666933
C            0.81006557870111        1.87165007920319        0.72945955423129
C            0.46571160352881        0.53822617392373        0.71225855532647
C           -0.87793830156524        0.47634717808592        0.20836659151544
C           -1.77162023779777       -0.58367574634835       -0.03789239116834
C           -3.02672414894066       -0.28742476759214       -0.53989235541741
C           -3.42151312088750        1.04343313781209       -0.80316133684187
C           -2.56322518176840        2.10430206261602       -0.56121835418250
C           -1.29265027161720        1.80662808400551       -0.05338439004510
H           -0.24009534681321        3.63436095386448        0.18966359241969
H            1.73529851336840        2.33580704648657        1.03109053269622
H           -1.50305525666754       -1.61626467316542        0.14407559589596
H           -4.40498005071750        1.21944512582797       -1.21764230728266
H           -2.86669116000119        3.12202399064741       -0.77017733922024
O           -3.89811008711767       -1.32238169416414       -0.83081333483205
C           -4.93068201358767       -1.45614268455674        0.14243859571922
H           -5.53291397099820       -0.54755074912755        0.20997659095418
H           -4.50898504352537       -1.67681066896309        1.12603652601366
H           -5.55857596898204       -2.28275062559569       -0.17957138132030
C            1.34463354113689       -0.62095674388664        1.06180853052866
C            1.95110049794535       -1.27281369762771       -0.19412938030310
N            2.75790844071337       -0.35083976272751       -0.97290232460771
C            4.06566734757421       -0.02256578645246       -0.72468634246680
C            4.85971829149148       -0.99189871736483        0.12948359674818
H            0.77434858134333       -1.37597168992098        1.61010449177972
H            2.15330548364228       -0.28906576729024        1.71661248432833
H            1.14868655486427       -1.63970267162613       -0.83542733465266
H            2.55990945444484       -2.13194563629744        0.08206160007234
H            2.25851247602586        0.38114818514394       -1.45618129032738
O            4.57355431145516        0.98066614239690       -1.20585230834592
H            4.85045529206953       -1.99177264638696       -0.30372337241749
H            4.45216532020857       -1.05876271281569        1.13822252519098
H            5.88099721855698       -0.62913974342214        0.18033359334189
