12

C            1.03728800453684        0.00053900000236       -0.58210200254597
C           -0.17648700077191       -0.00027100000118        0.10271500044925
C           -0.18317400080116       -0.00051800000226        1.49813300655247
C            1.01988000446071        0.00004000000018        2.20517200964489
C            2.22861600974742        0.00084800000371        1.51150500661095
C            2.24175300980488        0.00109600000479        0.11827300051730
I           -2.00407300876533       -0.00169600000742        2.53437701108475
H            1.01315700443130       -0.00013500000059        3.28624401437323
H            3.15911501381720        0.00127900000559        2.06322500902404
H            3.18139801391466        0.00171500000750       -0.41641500182130
H            1.03828300454120        0.00072900000319       -1.66386900727736
H           -1.10930400485183       -0.00068800000301       -0.44373200194077
