7

N           -2.51549434631932       -0.22284982894837        0.00000000000000
C           -1.40128596803932        0.07787649164681        0.00000000000000
C           -0.03182306246378        0.47829493822975        0.00000000000000
C            0.98129362466252       -0.38749669417397        0.00000000000000
H            0.14382871817202        1.54858366271113        0.00000000000000
H            0.81845057960759       -1.45773584759866        0.00000000000000
H            2.00503045438030       -0.03667272186670        0.00000000000000
