13

O            2.54770145697793        0.17637116798163       -0.96243666230878
P            1.35740111806683        0.08791101836798        0.07309954278719
O            1.26604288971220        1.25023253739080        0.98046725392538
O            0.00000000000000        0.00000000000000       -0.84441863278405
P           -1.35740111806683       -0.08791101836798        0.07309954278719
O           -1.26604288971220       -1.25023253739080        0.98046725392538
O           -1.48629932930620        1.36580209634681        0.69233960519963
O           -2.54770145697793       -0.17637116798163       -0.96243666230878
O            1.48629932930620       -1.36580209634681        0.69233960519963
H            2.75416556673969       -0.67569421403942       -1.38395240577649
H           -0.58663140643196        1.63952924829160        1.02269198256510
H           -2.75416556673969        0.67569421403942       -1.38395240577649
H            0.58663140643196       -1.63952924829160        1.02269198256510
