16

C           -1.83687600803405        0.22847500099930       -0.10517500046001
H           -2.58471401130491        0.37511300164065       -0.89039200389436
O           -1.56930300686375       -1.16485800509480        0.07066500030907
C           -0.55264900241715        0.94073500411455       -0.49167600215047
H           -0.16323100071393        0.51425300224922       -1.41656400619571
H           -0.81863800358053        1.97886400865507       -0.70455000308153
C            0.53991700236147        0.90856500397384        0.58334100255139
H            0.09144400039995        1.02090600446519        1.57447800688638
H            1.21458500531230        1.75490000767550        0.43964800192291
H           -2.39563601047793       -1.59196400696286        0.31012300135640
H           -2.23094200975760        0.66027900288790        0.82161900359356
C            1.38707900606674       -0.35419000154914        0.56846800248634
H            2.08041300909922       -0.33720100147483        1.41544300619080
H            0.75070500328340       -1.23417700539799        0.65071800284608
O            2.11464100924893       -0.36440900159383       -0.66380500290332
H            2.46847501079651       -1.24834900545998       -0.78515000343405
