5

P            0.09936400039858        1.51476800659405        0.00000000000000
H            1.06361600462274        1.41209800612561        1.03445700449987
H            1.06361600462274        1.41209800612561       -1.03445700449987
O           -0.09936400039858        3.16711101382594        0.00000000000000
H           -1.03112700449721        3.38329401477908        0.00000000000000
