15

C           -2.39839173343545        0.07528216102158       -0.37062376338951
C           -1.16157426549985       -0.36331158456316        0.37129920423016
O            0.00000000000000        0.00000000000000       -0.32990994765816
C            1.16157426549985        0.36331158456316        0.37129920423016
C            2.39839173343545       -0.07528216102158       -0.37062376338951
H           -3.26574245201968       -0.33460860584876        0.14857219279238
H           -2.40169224993557       -0.29019834617723       -1.39749744630847
H           -2.46903539128022        1.16418904085124       -0.37189712817151
H           -1.10654167179431       -1.47611542305631        0.37046842520952
H           -1.08654776829211       -0.03933809907313        1.41463348946651
H            1.08654776829211        0.03933809907313        1.41463348946651
H            1.10654167179431        1.47611542305631        0.37046842520952
H            2.46903539128022       -1.16418904085124       -0.37189712817151
H            3.26574245201968        0.33460860584876        0.14857219279238
H            2.40169224993557        0.29019834617723       -1.39749744630847
