5

Br          -0.26832590817359       -3.19420903797069        1.99445895872328
C            0.04999993321869       -5.08919749625891        1.92939117943869
F            0.07894960134530       -5.51244135911008        0.67185156593852
F            1.21198394230092       -5.38399632354829        2.49866449192855
F           -0.90998740898006       -5.74374735312176        2.57072174924371
