21

C            0.97404684361404        0.08744206394884       -1.12387118041140
C           -0.36798060855878        0.80430887971771       -0.76861067533541
C           -0.36798060855878        0.80430887971771        0.76861067533541
C            0.97404684361404        0.08744206394884        1.12387118041140
C            0.84049862321990       -1.34632423839255       -0.66641528067524
C            0.84049862321990       -1.34632423839255        0.66641528067524
C            1.85701766296313        0.65113901205237        0.00000000000000
C           -1.62148694868006        0.05825814594208       -1.16810593430634
C           -1.62148694868006        0.05825814594208        1.16810593430634
N           -2.26760270719048       -0.30263768318375        0.00000000000000
O           -2.01227248671280       -0.19474923550178        2.27653640419715
O           -2.01227248671280       -0.19474923550178       -2.27653640419715
H           -3.12090876290695       -0.84217921599481        0.00000000000000
H            1.29440393665389        0.24261005051018       -2.15161766353244
H           -0.39428882295757        1.80196011688742       -1.21074310024567
H           -0.39428882295757        1.80196011688742        1.21074310024567
H            1.29440393665389        0.24261005051018        2.15161766353244
H            0.66432593956070       -2.18875521540052       -1.32240330134747
H            0.66432593956070       -2.18875521540052        1.32240330134747
H            1.91738683677326        1.74317383012315        0.00000000000000
H            2.85961401808235        0.22100292158034        0.00000000000000
