19

C           -1.02497478387083       -0.07628416769012        1.94869332340151
H           -0.02165689441697        0.33608350815842        1.87178920004385
H           -0.96888139413622       -1.10005524900942        2.31289025492154
H           -1.59830897917260        0.49785335936445        2.67198924136133
C           -1.76690398659146       -0.06959121105730        0.63063073827411
O           -2.94723652469828       -0.39654923526522        0.54790255985545
N           -1.03835505399070        0.31739596209558       -0.44110481462607
H           -0.05228986405516        0.53274433490898       -0.33876955425132
C           -1.64419974602508        0.33095399712838       -1.75301202049059
H           -2.56132935090267        0.91592761399152       -1.74140400718422
H           -0.94520566863447        0.77429771772613       -2.45706025566395
H           -1.89938370719134       -0.67449243145483       -2.08712902282966
N            1.99188655848113        0.64161070147907       -0.25917495848406
H            2.39555285491508        1.18153019071455        0.49602507786335
H            2.40989040184688        1.00899192405673       -1.10482081963813
C            2.36418937148337       -0.76957201238410       -0.10542222034146
H            1.93790200131654       -1.34060455722799       -0.92679761213891
H            3.43958793666338       -0.95626144817250       -0.07963882540120
H            1.92971682897941       -1.15397899736236        0.81441371532839
