20

C           -1.28838150568989       -0.69833812611341       -1.31241342257632
H           -1.02649567882204       -1.76434884917764       -1.32778724088866
H           -0.87347481699843       -0.23588948145834       -2.22281297798573
H           -2.38415988702327       -0.62821493446488       -1.37679959489769
C           -0.77363334206624        0.01704302313726       -0.05378700644540
H           -1.16960872529819       -0.52223933991134        0.82831811205944
C            0.77363559262517       -0.01724083353165        0.05366781558114
H            1.16962075404654        0.52157782496814       -0.82871630451717
C            1.28850688779522        0.69871449437161        1.31191779398877
H            0.87335919132276        0.23697029481187        2.22256517890845
H            2.38425529462634        0.62824550097356        1.37644509305677
H            1.02699563769316        1.76482535856081        1.32661026568521
C           -1.32998789927022        1.44889154644827       -0.01907125412273
H           -1.10690162062512        1.96593206786046        0.92367684545060
H           -0.91087447358317        2.05127533517249       -0.84149083188676
H           -2.42338293672043        1.44287326795181       -0.13879040339651
C            1.32986000615553       -1.44915653932923        0.01963376056012
H            2.42329850582967       -1.44316571401730        0.13895480076921
H            0.91098432100354       -2.05097922256510        0.84258498023083
H            1.10638469499909       -1.96677567368738       -0.92270560957357
