11

C            0.78858714432931       -0.45488531849689        0.00000000000000
C            2.02761594325684        0.11709562985733        0.00000000000000
C           -0.34693118427618        0.35955142514406        0.00000000000000
C           -1.71928636136552       -0.11050524069235        0.00000000000000
H            0.67695579977595       -1.53353311605062        0.00000000000000
H            2.15580904524659        1.19528675383269        0.00000000000000
H            2.92981213810069       -0.48539449046350        0.00000000000000
H           -0.19138842471726        1.43805995768642        0.00000000000000
H           -1.82763022507312       -1.19218589045225        0.00000000000000
H           -2.24677193763864        0.33325514481756        0.86041402321305
H           -2.24677193763864        0.33325514481756       -0.86041402321305
