4

C           -0.00142712243334        0.00458854653552        0.00000000000000
H            0.71227437498942        0.86566796423795        0.00000000000000
H           -1.08716852985738        0.27293835733443        0.00000000000000
O            0.37632127730129       -1.14319486810790        0.00000000000000
