20

C           -0.00686990003005        0.77025730336892        0.41444120181267
C            0.00686990003005       -0.77025730336892        0.41444120181267
C            1.40791160615786       -1.32507630579556        0.64060100280184
H           -0.61080250267150       -1.08811080475913        1.25682460549705
C           -0.60037220262588       -1.35755020593759       -0.85381790373439
C           -1.40791160615786        1.32507630579556        0.64060100280184
C            0.60037220262588        1.35755020593759       -0.85381790373439
H            0.61080250267150        1.08811080475913        1.25682460549705
H            1.38478190605670       -2.39936001049422        0.81271750355463
H            2.04485980894372       -1.14928120502668       -0.22434030098121
H            1.88180180823054       -0.86163670376859        1.50288370657325
H            0.05015210021935       -1.18135580516697       -1.70797230747026
H           -0.73464810321317       -2.43274351064023       -0.76119700332929
H           -1.57086160687056       -0.92077200402723       -1.08014400472429
H            0.73464810321317        2.43274351064023       -0.76119700332929
H            1.57086160687056        0.92077200402723       -1.08014400472429
H           -0.05015210021935        1.18135580516697       -1.70797230747026
H           -1.38478190605670        2.39936001049422        0.81271750355463
H           -2.04485980894372        1.14928120502668       -0.22434030098121
H           -1.88180180823054        0.86163670376859        1.50288370657325
