7

C            0.00000000000000        0.00000000000000        0.52330600228881
H            0.00000000000000        0.00000000000000        1.60962500704011
N            0.00000000000000        1.05481800461352       -0.26488700115855
H           -0.31469000137638        1.96461800859276        0.04177000018269
H            0.00000000000000        0.00000000000000       -1.12459100491869
N            0.00000000000000       -1.05481800461352       -0.26488700115855
H            0.31469000137638       -1.96461800859276        0.04177000018269
