8

N           -0.45451519158835        0.21870191368279        0.00000000000000
N            0.37232333572440        0.19757914029026        1.17353962700142
N            0.37232333572440        0.19757914029026       -1.17353962700142
H            0.50266116275240       -0.75195481574973       -1.53082179975402
H           -0.11089377137345        0.74253902046661       -1.88459919713830
H            0.50266116275240       -0.75195481574973        1.53082179975402
H           -0.11089377137345        0.74253902046661        1.88459919713830
H           -1.07366626261835       -0.59502860369710        0.00000000000000
