17

C            0.02499546716877       -0.30073362042945       -2.53044368004791
H            0.91960210234677       -0.92405373744492       -2.53884741853381
H           -0.83727547407156       -0.96545719116640       -2.58232623827466
H            0.03098459867657        0.30902133327342       -3.43285848753255
C           -0.02348944870244        0.55255938419728       -1.26990963138906
H           -0.91258583661896        1.18717775595546       -1.28652441615181
H            0.83663894151820        1.22514339751822       -1.24467832459772
C           -0.02708810448517       -0.28673917449230        0.00000000000000
H           -0.90218738858196       -0.94353823623037        0.00000000000000
H            0.85152139000442       -0.93713252917334        0.00000000000000
C           -0.02348944870244        0.55255938419728        1.26990963138906
H           -0.91258583661896        1.18717775595546        1.28652441615181
H            0.83663894151820        1.22514339751822        1.24467832459772
C            0.02499546716877       -0.30073362042945        2.53044368004791
H            0.91960210234677       -0.92405373744492        2.53884741853381
H            0.03098459867657        0.30902133327342        3.43285848753255
H           -0.83727547407156       -0.96545719116640        2.58232623827466
