10

O            0.00000000000000        0.00000000000000       -1.35233155644688
C            0.00000000000000        1.03900494899751       -0.34026681612827
C            0.00000000000000        0.00000000000000        0.79744878549817
C            0.00000000000000       -1.03900494899751       -0.34026681612827
H            0.88804984009326        1.67350998069164       -0.40542295487022
H           -0.88804984009326        1.67350998069164       -0.40542295487022
H           -0.88675996189151        0.00000000000000        1.42855411134307
H            0.88675996189151        0.00000000000000        1.42855411134307
H            0.88804984009326       -1.67350998069164       -0.40542295487022
H           -0.88804984009326       -1.67350998069164       -0.40542295487022
