7

C           -1.21946433204736        0.09380347359770        0.00000000000000
H           -0.15359485062197        0.05472507760615        0.00000000000000
C           -2.43133966266381        0.13724953915469        0.00000000000000
H           -3.49187208479447        0.17631752036966        0.00000000000000
O            2.05130601200134       -0.05265862829986        0.00000000000000
H            2.62248245906314       -0.20471849121417        0.75334587299800
H            2.62248245906314       -0.20471849121417       -0.75334587299800
