4

Al           0.00000000000000        0.00000000000000        0.00000000000000
F            0.82189010331198        1.42355541717438        0.00000000000000
F            0.82189010331198       -1.42355541717438        0.00000000000000
F           -1.64378020662396        0.00000000000000        0.00000000000000
