4

N            0.00000000000000        0.00000000000000        0.06904863741893
H            0.00021173861904       -0.93472390998181       -0.31985433451178
H           -0.80960079138838        0.46717858344543       -0.31985433451178
H            0.80938905224016        0.46754532600721       -0.31985433557014
