33

N            0.57050626234458        2.32811998628478       -0.69597976900549
C            1.49447719667810        1.46351204775180       -1.24109173024638
C            0.96249623451517        0.19666213769891       -1.32544672429718
C           -0.36856967087110        0.28255213143152       -0.79100876218092
C           -1.38820159842728       -0.66063080168160       -0.59292677605440
C           -2.58862651315170       -0.24620183083944       -0.02812081602970
C           -2.78851849912711        1.10266607323951        0.34349115718205
C           -1.78811857007405        2.05067700596650        0.15546917062494
C           -0.58203765585809        1.63166003536763       -0.40691878927769
H            0.72705425157208        3.30335391674132       -0.51873378153877
H            2.47668612728322        1.81420002277945       -1.51392371064966
H           -1.27161860678120       -1.70024272766617       -0.87006575623609
H           -3.72340643234804        1.41811505086304        0.77991012671164
H           -1.95275855834880        3.08045793276131        0.44517815007294
O           -3.53653444576801       -1.22485276173635        0.13387917222865
C           -4.77320935783729       -0.83466278902371        0.70610913185689
H           -5.28167032182644       -0.08921884206926        0.09079417544566
H           -4.64065936726640       -0.44117081719136        1.71630505978980
H           -5.37764431490252       -1.73574872513629        0.74933812887169
C            1.67389818397492       -1.05195477363999       -1.73590269508279
C            2.32518613780326       -1.75801572375147       -0.53086978034897
N            3.37904006301160       -0.96631277986562        0.07616617637222
C            3.23845107313702       -0.03633384582671        1.07766910547002
C            2.01609015961366       -0.15675683730422        1.96263704246983
H            2.45176212883373       -0.82423278980679       -2.46892264276342
H            0.97813823343495       -1.74491772469356       -2.21618566105083
H            2.74979510761425       -2.71225365617260       -0.84911775774876
H            1.57026619177852       -1.97518370838863        0.22226716603571
H            4.19128400566667       -0.78502279263596       -0.49541778276734
O            4.09904201211588        0.81251209385790        1.26928609180592
H            1.91636316714386       -1.16688976563182        2.35995501422132
H            1.10792822459003        0.08140414546273        1.40951008169928
H            2.13310915147652        0.54471111285509        2.78266798441982
