5

Cl           0.00000000000000        0.00000000000000       -3.06150094124279
H            0.00000000000000        0.00000000000000       -1.76898065166865
Si           0.00000000000000        0.00000000000000        0.92562546927567
H            1.09470419244773        0.00000000000000        1.95242806181789
H           -1.09470419244773        0.00000000000000        1.95242806181789
