23

C           -1.48188605428356        1.13828881178514       -1.02803694647972
C           -1.29650353412554       -0.08031841531350       -0.13106422735027
C            0.00000000000000        0.00000000000000        0.67359725662310
C            1.29650353412554        0.08031841531350       -0.13106422735027
C            2.48231205585782        0.21953623197275        0.81797821775521
C           -2.48231205585782       -0.21953623197275        0.81797821775521
C            1.48188605428356       -1.13828881178514       -1.02803694647972
H           -1.47686087814080        2.05049023151235       -0.42741599931059
H           -0.69417423245469        1.22365854145397       -1.77514127616864
H           -2.43549001344362        1.09173203610122       -1.55399365155483
H           -1.26337547531099       -0.97309846671275       -0.76070439268103
H           -0.06176501184048        0.87454035658441        1.33103729061860
H            0.06176501184048       -0.87454035658441        1.33103729061860
H            1.26337547531099        0.97309846671275       -0.76070439268103
H            2.55402193740200       -0.65655184848191        1.46517257761915
H            2.37766557034301        1.09766302997296        1.45523221280774
H            3.42036776115706        0.30820535124590        0.27013756643285
H           -2.55402193740200        0.65655184848191        1.46517257761915
H           -2.37766557034301       -1.09766302997296        1.45523221280774
H           -3.42036776115706       -0.30820535124590        0.27013756643285
H            1.47686087814080       -2.05049023151235       -0.42741599931059
H            2.43549001344362       -1.09173203610122       -1.55399365155483
H            0.69417423245469       -1.22365854145397       -1.77514127616864
