6

C            0.66304135252497        0.00000000000000        0.00000000000000
C           -0.66304135252497        0.00000000000000        0.00000000000000
H            1.23386234899447        0.92182152194763        0.00000000000000
H            1.23386234899447       -0.92182152194763        0.00000000000000
H           -1.23386234899447       -0.92182152194763        0.00000000000000
H           -1.23386234899447        0.92182152194763        0.00000000000000
