6

C           -0.73841880673596        0.00000000000000       -0.05481213105460
H           -1.24037706599987        0.92885393398081        0.17078578360916
H           -1.24037706599987       -0.92885393398081        0.17078578413834
N            0.65316864116906        0.00000000000000        0.06448850095909
H            1.10167832569820       -0.82868594109876       -0.29228721072528
H            1.10167832569820        0.82868594109876       -0.29228721125446
