20

C            1.41517989943498        2.86928679630180        0.00000000000000
C            1.41517989943498        1.34616790436284        0.00000000000000
C            0.00893099946078        0.76126394574184        0.00000000000000
C           -0.00893099946078       -0.76126394574184        0.00000000000000
C           -1.41517989943498       -1.34616790436284        0.00000000000000
C           -1.41517989943498       -2.86928679630180        0.00000000000000
H            0.90091593581686        3.25586576903349        0.87966293757720
H            0.90091593581686        3.25586576903349       -0.87966293757720
H            2.42662382778936        3.27249276783010        0.00000000000000
H            1.95590786137985        0.97731593056690        0.87446593793157
H            1.95590786137985        0.97731593056690       -0.87446593793157
H           -0.53419696211416        1.12923592006149       -0.87527293794079
H           -0.53419696211416        1.12923592006149        0.87527293794079
H            0.53419696211416       -1.12923592006149        0.87527293794079
H            0.53419696211416       -1.12923592006149       -0.87527293794079
H           -1.95590786137985       -0.97731593056690       -0.87446593793157
H           -1.95590786137985       -0.97731593056690        0.87446593793157
H           -2.42662382778936       -3.27249276783010        0.00000000000000
H           -0.90091593581686       -3.25586576903349        0.87966293757720
H           -0.90091593581686       -3.25586576903349       -0.87966293757720
