18

C           -1.66597520021860        0.10812333623022       -0.16294016936220
C           -0.93393192087386       -0.02754029773777       -1.36410527016358
C            0.41981907161491       -0.12048248990831       -1.32063195545666
C            1.17653327789306       -0.09112473376694       -0.09562760564646
C            0.53052625706216        0.03527215920292        1.07277696548824
C           -0.94581569993016        0.14652391763694        1.14077045067620
N           -2.97027444627743        0.20158836347128       -0.16853057166382
H           -3.49696604310954        0.17964651252233       -1.03128841352059
H           -3.51022484161275        0.29939360126629        0.67998764560288
H           -1.45217668960769       -0.05630396716304       -2.31502283982318
H            0.97092478209611       -0.22304265388036       -2.24956184240420
C            2.66095490598640       -0.20217086058770       -0.21323014173164
H            1.06212804564924        0.06185011472835        2.01679297031423
H           -1.32739270942436       -0.65433685774900        1.78993082446087
O            3.25923787993438       -0.18128244029789        0.96476068287934
O            3.20781022286593       -0.29765620103999       -1.27111495112825
H            4.21760990081477       -0.25347477442508        0.85688408384057
H           -1.20278679286257        1.07501727149774        1.67015013763823
