27

N            2.83255924185137        0.09428223722444        1.61271103193639
C            1.73711818668324       -0.03423927141859        0.69525230411954
C            1.84289174981148       -1.14917050879537       -0.33908633278678
O            3.07474263470115       -1.48361670035841       -0.64074380718188
H            3.70497837587998        0.31900989131059        1.15461700249138
O            0.87799165344871       -1.67251633627474       -0.86014674542390
H            2.97538058881244       -0.73181948728355        2.17580585931455
H            0.84173387453271       -0.26047342660645        1.28551221719342
C            1.52980969379576        1.32070247375545       -0.00782231453009
H            2.45349318141052        1.57822085264751       -0.53638081864453
H            1.43270379271051        2.05475431664757        0.79597620150378
C            0.37107039971143        1.48372885805037       -0.99091226907579
H            0.50347394093982        0.87179234283014       -1.88802673337157
H            0.40830836152107        2.51553244485675       -1.34749605820722
C           -1.03235291811766        1.26660423769859       -0.43258473937971
H           -1.11860589327054        1.75312204541182        0.54622795782224
H           -1.75019267015880        1.74240522943861       -1.10879311916168
N           -2.64621767934161       -1.97237073813414        0.14395537050839
H           -3.51999848235400       -2.39620158109668        0.40196813966704
H           -1.91309666529636       -2.59113011835425       -0.16177255765609
H           -0.58998740436699       -0.80949991339029       -0.58126419164568
N           -1.34049019499735       -0.15166825197090       -0.32297462934203
C           -2.48825875522227       -0.64834945763386        0.08551472340597
N           -3.49367551389593        0.14609462024057        0.44983707295064
H           -4.37342307135051       -0.22210082667175        0.76812347535952
H           -3.40873195138582        1.14742953555461        0.42442241863914
H            3.08877552394771       -2.17052246767803       -1.32191945850497
