17

O           -2.86792989298462        0.46797649215904        0.00135607036112
H           -1.89667615410293        0.50281254969263       -0.00071566000710
C           -3.21820932521343       -0.89804668620945        0.00112319217086
H           -4.30367011144879       -0.96153399976083        0.00489376501058
H           -2.85516180628378       -1.42586647977893       -0.88549910572245
H           -2.84891844654700       -1.42772746638126        0.88405745458157
N            0.03205832890691        0.39694152881114       -0.00174205371290
C            0.72842666866530        0.37250619958623       -1.14646157619635
H            0.14394811295827        0.39572973310690       -2.05743694959643
C            2.11806363287219        0.32276333908634       -1.19514682312252
H            2.62541594467482        0.30547130847182       -2.14892947898861
C            2.82843681050375        0.29705072424393        0.00046611917820
H            3.90877273664758        0.25928597353735        0.00131541420519
C            2.11618940890193        0.32207182935751        1.19500588744933
H            2.62198810721435        0.30424750361995        2.14949151131839
C            0.72663586471974        0.37182151253918        1.14405180593165
H            0.14063012051571        0.39449593791847        2.05417042713950
