6

F            0.00000000000000        0.00000000000000       -0.10952999236414
I            0.00000000000000        0.00000000000000        1.81041387131543
F            0.00000000000000        0.00000000000000       -3.13705377713964
C            0.00000000000000        0.00000000000000       -4.41135268671505
C            0.00000000000000        0.00000000000000       -5.60043060214649
H            0.00000000000000        0.00000000000000       -6.66196852706824
