7

O            2.58080981654396       -2.06856985309718        0.95053993253164
C            3.23449977029221       -1.47034989557446        0.04832999650589
C            3.89501972328312       -2.35236983289992       -1.02280992722594
F            4.22219970028862       -3.58133974591653       -0.54598996148568
O            3.37323976048664       -0.24357998283611       -0.11278999174698
F            2.98327978829860       -2.55049981910372       -2.02740985589619
H            4.78410966023759       -1.89721986550835       -1.45561989653527
