20

C           -2.30442120334765       -0.58493731086695       -0.15292062097062
C           -1.04867461837225        0.25751126952473       -0.34769183641982
C            0.19208235063975       -0.55062394543642        0.02784857119985
C            1.51865150916926        0.13917222482754       -0.26453436089468
C            2.71210154853344       -0.75959203506507        0.03338536087029
C           -1.15477325199545        1.54765660298404        0.45858185075317
H           -2.41084758527354       -0.86409731703180        0.89700130462875
H           -3.19942758158378       -0.03570154406380       -0.44439507446070
H           -2.26194273051959       -1.50183566580692       -0.74023474461821
H           -0.96967701065844        0.51842688408886       -1.40812729361651
H            0.13938536984254       -0.79987615775949        1.09353750079326
H            0.16708628721597       -1.50206940668711       -0.51169000536497
H            1.60056796703207        1.05384994621178        0.32379152770989
H            1.53852249616973        0.44224002742597       -1.31453855550159
H            2.71517823336057       -1.06263077100228        1.08042837363893
H            3.65562484814209       -0.25605489786330       -0.17128471472791
H            2.67687443455505       -1.66507137956942       -0.57208795251378
H           -1.19323349926953        1.32038071266524        1.52613726098330
H           -2.06325781665947        2.09165353895222        0.20074517487428
H           -0.30981974698075        2.21159922447215        0.28604823363708
