8

N            0.00000000000000        0.00000000000000       -0.36875513616904
H            0.00000000000000        0.00000000000000       -1.38378706366552
C            1.22577441210499        0.00000000000000        0.15784006124652
H            1.33931519437170        0.00000000000000        1.22986726485570
H            2.06809411246071        0.00000000000000       -0.51143622618493
C           -1.22577441210499        0.00000000000000        0.15784006124652
H           -1.33931519437170        0.00000000000000        1.22986726485570
H           -2.06809411246071        0.00000000000000       -0.51143622618493
