16

Si           0.42696742318470       -0.09568896367530       -1.74930791603734
H           -0.61558868603452       -0.53286830647783        1.54099369427944
N            1.44733714942403        0.47956762871853        1.38867844647645
H            0.90177357864278       -1.69655732706743        0.85662227203333
F           -2.45715944992834        0.96858235208869        0.49773033706966
B            0.44679168694526       -0.51131110276578        0.97491946832063
F           -0.99729511559527       -2.24854644892388       -0.33091903743186
B            0.35372176105796       -1.74834404273217       -0.44313852485470
B            0.85461083984289        1.37119849265214        0.39890148831760
H           -1.60605437937106        3.13839675866560       -0.96213023568439
H            2.42124449500188        0.23115765966557        1.21680613222841
H            1.14385491039001       -2.57127889274603       -0.79970351354492
H           -0.99625467381769        0.53896431521240       -1.49567672173063
Al          -1.09321797842885        1.90324447427898       -0.12432160213557
Li          -1.96067085882537       -0.75935030889585        0.30934128198550
S            1.72993929751158        1.53283371200235       -1.27879556929160
