12

C            0.22259259194071        1.42799813569254        0.02723212001828
C           -0.97436060303120        0.49751728341616       -0.13040233191114
C           -0.41680155829099       -0.87383434822413        0.25408915427826
C            1.06882298333542       -0.72158791370553       -0.09552631408967
O            1.36453901114057        0.68260630736087        0.07749465314437
O            0.23335203963534        2.62270411245938        0.09577055963323
H           -1.29093805537852        0.53692757575482       -1.17703075460680
H           -1.80453107804235        0.84823166488973        0.47961712689246
H           -0.53487837852459       -1.04496275843567        1.32593970851677
H           -0.88192758173735       -1.70472717022216       -0.27573784787466
H            1.27495165154034       -0.98951293439642       -1.13553098592650
H            1.73917897741262       -1.28135995458958        0.55408491192538
