29

N            1.67546354602374       -1.00996903258736        0.52887232039200
H            1.71018995455503       -1.39650966205744        1.45728023609493
C            0.41346752633628       -0.45732893734504        0.05630389469685
H            0.37446696013071       -0.62929984490784       -1.01996080817753
C           -0.74273041702371       -1.17445891572216        0.74392550262852
C            0.38580832196610        1.05459167022561        0.32066407541030
H           -0.59765889162494       -2.24717514986288        0.61296475492010
H           -0.70162400705056       -0.95448529718555        1.81347724132256
C           -2.07638837635952       -0.81920439819001        0.19025008211899
O           -0.28552325730914        1.55360795932922        1.22858327384426
N           -2.67820457543753        0.39653029627455        0.38991162387069
C           -2.97895809274167       -1.53370516211682       -0.57429810775312
H           -2.22681510817630        1.15737337342382        0.88136673757140
C           -3.87815982912347        0.37389494401694       -0.24706845876151
N           -4.09712429644695       -0.78860832918331       -0.84371715636838
H           -2.87448783436821       -2.54517652956982       -0.93005371692301
H           -4.54816905688883        1.21618205088141       -0.24765305655587
C            2.80789257659925       -0.97113015032364       -0.21631920658103
C            4.01530644949635       -1.64379002325419        0.38271006425732
O            2.84701342025906       -0.42753943551769       -1.32032901097320
H            4.81659509013377       -0.91314011566647        0.46100678072178
H            4.34526179536171       -2.42398679452739       -0.29903724869489
H            3.82497823634923       -2.07873244863343        1.36046237101756
N            1.17471531766807        1.75459322762204       -0.51133988676811
C            1.37448288806959        3.18064853658686       -0.36261866945203
H            1.77066839380293        1.21370806474831       -1.12930518731270
H            1.38761048970510        3.65480798409251       -1.34027000823443
H            0.55149549131350        3.57687435952430        0.22322727410092
H            2.30873032020044        3.40122376219895        0.15273629729315
