20

C            0.23250398365967       -1.30771690712397        0.00000000000000
P           -0.04754099645950        0.40016497160502        0.00000000000000
B            1.63429288390682       -1.85240686858954        0.00000000000000
B           -1.00426592894840       -2.16764284603556        0.00000000000000
H            1.80198187220593       -3.03560178443963        0.00000000000000
H            2.60552481486647       -1.14360591878575        0.00000000000000
H           -2.11218885001217       -1.68771988038245        0.00000000000000
H           -0.91153293514740       -3.35805876170262        0.00000000000000
C           -1.00426592894840        0.96442793178089        1.43305789802950
H           -1.21217491368496        2.03223985579993        1.37108490285618
H           -1.93797786265752        0.40472997120343        1.46017289651125
H           -0.43739296887056        0.74615194690353        2.33670183391623
C           -1.00426592894840        0.96442793178089       -1.43305789802950
H           -1.21217491368496        2.03223985579993       -1.37108490285618
H           -0.43739296887056        0.74615194690353       -2.33670183391623
H           -1.93797786265752        0.40472997120343       -1.46017289651125
C            1.45521889662839        1.40466690036005        0.00000000000000
H            1.18704691583314        2.46042482528196        0.00000000000000
H            2.04604985485746        1.17062891663432        0.88319593736644
H            2.04604985485746        1.17062891663432       -0.88319593736644
