12

N           -0.79328363719107       -1.37400756442796       -0.32036434074615
P           -1.76898033288480        0.00000000000000        0.03727416829474
N           -0.79328363719107        1.37400756442796       -0.32036434074615
P            0.88449016644240        1.53198190707329        0.03727416829474
N            1.58656727438213        0.00000000000000       -0.32036434074615
P            0.88449016644240       -1.53198190707329        0.03727416829474
H           -1.08668580855801       -1.88219503228654       -1.14115545213395
H           -1.47492019729794        0.00000000000000        1.42424562458542
H           -1.08668580855801        1.88219503228654       -1.14115545213395
H            0.73746009864897        1.27731835941477        1.42424562458542
H            2.17337161711602        0.00000000000000       -1.14115545213395
H            0.73746009864897       -1.27731835941477        1.42424562458542
