4

K           -0.52255788293044       -0.69580701079851       -0.08762401378838
O            1.05946349469140        1.41661235939027        0.17358438756086
H            2.01489543717070        1.43516894785202        0.23109811380086
H            0.81042438269070        2.33892480418969        0.23556278351680
