26

N           -0.60116324537047       -1.00731415921579        0.06826085763431
C            0.10409786500981       -0.04628859104808        0.90197137157440
C            0.18941756550708        1.35855080090726        0.27688013621527
O            1.26861708742004        1.93448216778088        0.11224974739141
C            1.50101143741280       -0.58525023525486        1.20761484862442
C            2.20137090456900       -1.03377233417420       -0.06125531629027
O            1.94034488211404       -2.12471950324989       -0.56998450307835
N            3.10737772143745       -0.16774875524769       -0.57074061313211
H           -0.02841139517997       -1.72065936372532       -0.36868862609545
H           -0.45960842990570        0.05754750330620        1.83287371454617
H            1.40606719548027       -1.46276790421480        1.84339037085449
H            2.06697487206020        0.18257070871510        1.72657018968881
H            2.96726021622381        0.80442930412449       -0.33386261624089
H            3.45453946802969       -0.38591490334952       -1.49036668252159
N           -1.00741489309776        1.88616603473605       -0.02343951626465
H           -1.82438623372705        1.32684513195001        0.21104083653862
C           -1.14746640506576        3.19995039430425       -0.61244770216658
H           -0.15282028079158        3.58255934438522       -0.81728176598563
H           -1.71203698309413        3.14443619551207       -1.54088011685424
H           -1.65598567375674        3.87931190518410        0.06943573319156
C           -1.94703994103737       -1.10384793720668        0.03846348971023
O           -2.68422687801624       -0.28315363886477        0.59404806261287
C           -2.50123694865734       -2.27951007995356       -0.72221506643877
H           -1.73181262910737       -2.86771754058754       -1.21496810861388
H           -3.04681576795573       -2.91181176904972       -0.02503995436773
H           -3.21100352582816       -1.91361176936545       -1.45967377459151
