16

O            1.29748410567488        1.00740300440614       -0.74982570327956
C            0.72251210316009        0.03956940017307        0.01727730007557
C           -0.72251210316009       -0.03956940017307        0.01727730007557
O           -1.29748410567488       -1.00740300440614       -0.74982570327956
C           -2.62994751150275       -0.86916020380149       -0.61823150270399
C           -2.93238701282555        0.16534050072316        0.19586450085666
C           -1.68751770738079        0.70943370310289        0.61453980268785
H           -1.52155720665492        1.54372340675187        1.26858180554847
H           -3.91585921712702        0.49732740217519        0.46751930204481
H           -3.22501961410545       -1.57534060689016       -1.16274140508555
C            2.62994751150275        0.86916020380149       -0.61823150270399
C            2.93238701282555       -0.16534050072316        0.19586450085666
C            1.68751770738079       -0.70943370310289        0.61453980268785
H            3.22501961410545        1.57534060689016       -1.16274140508555
H            3.91585921712702       -0.49732740217519        0.46751930204481
H            1.52155720665492       -1.54372340675187        1.26858180554847
