12

C            1.20675698288394        0.69672146891451        0.00000000000000
H            2.14347890930402        1.23753812528896        0.00000000000000
C            1.20675698288394       -0.69672146891451        0.00000000000000
H            2.14347890930402       -1.23753812528896        0.00000000000000
C            0.00000000000000       -1.39344293782901        0.00000000000000
H            0.00000000000000       -2.47507625057792        0.00000000000000
C           -1.20675698288394       -0.69672146891451        0.00000000000000
H           -2.14347890930402       -1.23753812528896        0.00000000000000
C           -1.20675698288394        0.69672146891451        0.00000000000000
H           -2.14347890930402        1.23753812528896        0.00000000000000
C            0.00000000000000        1.39344293782901        0.00000000000000
H            0.00000000000000        2.47507625057792        0.00000000000000
