11

N            0.00000000000000        0.00000000000000        1.60848288582662
C            1.14312246409012        0.00000000000000        0.90899984664648
H            2.05593737214798        0.00000000000000        1.49180756674379
C            1.19449773956428        0.00000000000000       -0.48195198962083
H            2.14907835084845        0.00000000000000       -0.98818416816823
C            0.00000000000000        0.00000000000000       -1.19448305503484
H            0.00000000000000        0.00000000000000       -2.27555016114819
C           -1.19449773956428        0.00000000000000       -0.48195198962083
H           -2.14907835084845        0.00000000000000       -0.98818416816823
C           -1.14312246409012        0.00000000000000        0.90899984664648
H           -2.05593737214798        0.00000000000000        1.49180756674379
