8

S           -1.45620588261638        1.45620588261638       -0.36909387031535
O           -1.87655139252152        0.00000000000000        0.36909387031535
S           -1.45620588261638       -1.45620588261638       -0.36909387031535
O            0.00000000000000       -1.87655139252152        0.36909387031535
S            1.45620588261638       -1.45620588261638       -0.36909387031535
O            1.87655139252152        0.00000000000000        0.36909387031535
S            1.45620588261638        1.45620588261638       -0.36909387031535
O            0.00000000000000        1.87655139252152        0.36909387031535
