14

C            0.62324917772757        0.44075812566083        0.00000000000000
C           -0.62324917772757       -0.44075812566083        0.00000000000000
C            1.91958754739055       -0.36472010399837        0.00000000000000
C           -1.91958754739055        0.36472010399837        0.00000000000000
H            0.59762917037877        1.09858231325292        0.87793839321804
H            0.59762917037877        1.09858231325292       -0.87793839321804
H           -0.59762917037877       -1.09858231325292        0.87793839321804
H           -0.59762917037877       -1.09858231325292       -0.87793839321804
H            2.79738679770952        0.28809108214522        0.00000000000000
H            1.97878756428319       -1.00728328724477        0.88401439494676
H            1.97878756428319       -1.00728328724477       -0.88401439494676
H           -2.79738679770952       -0.28809108214522        0.00000000000000
H           -1.97878756428319        1.00728328724477        0.88401439494676
H           -1.97878756428319        1.00728328724477       -0.88401439494676
