16

C            0.12335200053951        1.76273000770975       -0.17993000078697
H           -0.80798700353394        2.19537100960202       -0.54598100238799
O           -0.12335200053951        1.42237900622114        1.18209600517020
C            0.51615300225753        0.57051700249530       -1.04649400457711
H            0.66343100290169        0.94532200413461       -2.06183000901795
H            1.48611200649989        0.18924500082771       -0.71406500312315
C           -0.51615300225753       -0.57051700249530       -1.04649400457711
H           -0.66343100290169       -0.94532200413461       -2.06183000901795
H           -1.48611200649989       -0.18924500082771       -0.71406500312315
H            0.61567600269282        0.87556400382951        1.46911100642553
H            0.89644400392083        2.53440501108487       -0.24545800107357
C           -0.12335200053951       -1.76273000770975       -0.17993000078697
H           -0.89644400392083       -2.53440501108487       -0.24545800107357
H            0.80798700353394       -2.19537100960202       -0.54598100238799
O            0.12335200053951       -1.42237900622114        1.18209600517020
H           -0.61567600269282       -0.87556400382951        1.46911100642553
