5

Si           0.00000000000000        0.00000000000000        0.00000000000000
Cl           1.18252820471400       -1.18252820471400        1.18252820471400
Cl          -1.18252820471400        1.18252820471400        1.18252820471400
Cl          -1.18252820471400       -1.18252820471400       -1.18252820471400
Cl           1.18252820471400        1.18252820471400       -1.18252820471400
