4

N            0.00000000000000        0.00000000000000        0.00000000000000
H            0.55718965960643       -0.96508079989036        0.00000000000000
H            0.55718965960643        0.96508079989036        0.00000000000000
H           -1.11437931921287        0.00000000000000        0.00000000000000
