16

C            1.73168200757396        0.01844200008066        0.55736800243779
H            1.27001400555473       -0.41700400182387        1.44908800633796
O            2.10108500918963       -1.00154500438051       -0.36654200160317
C            0.82498900360830        1.08088400472753       -0.05774400025256
H            0.63562100278005        1.84881000808625        0.69839800305462
H            1.36676800597791        1.56127400682863       -0.87388200382215
C           -0.50626600221428        0.54731600239383       -0.59255100259167
H           -0.33355500145889       -0.19194000083950       -1.37778800602611
H           -1.06273400464814        1.36085500595205       -1.05978400463524
H            1.30424500570445       -1.48175100648082       -0.60560900264879
H            2.66830301167051        0.47658600208447        0.87069400380820
C           -1.39215800608896       -0.06742800029491        0.47682500208552
H           -0.91244900399083       -0.94423400412985        0.92335400403853
H           -1.56413900684117        0.66124600289213        1.27660400558355
O           -2.61870901145360       -0.43716100191204       -0.14879800065081
H           -3.18056101391100       -0.83947700367167        0.51825800226674
