32

C           -2.95600477696639       -0.58997297187407       -0.54831287923592
C           -1.82007476041251        0.34471260264734       -1.03249062088397
C           -0.47105955072675       -0.40769160671137       -0.90156106575190
C           -0.25459639080594       -0.46416744294606        0.66493473792978
C           -1.50287683464942        0.27361826272522        1.21243839310990
C           -2.73958219381696       -0.63517892937461        1.00627183309677
C           -1.73532973338202        1.35693711009201        0.13407703759628
C            0.68956663593544        0.29815128436458       -1.61459906906683
C            2.05148274423863       -0.30999465019435       -1.23447496276103
C            2.25834501350987       -0.43889112151415        0.31155263202327
C            1.07637192885333        0.17084466677028        1.08561127321187
C            3.59064317531084        0.17847807817755        0.75662621030659
H           -2.88711523286626       -1.58279862569309       -1.01050111395480
H           -3.93860847605254       -0.16950044663359       -0.79658562178498
H           -1.98589250584866        0.76768025989252       -2.03031442199970
H           -0.56151866041364       -1.42443840417839       -1.30885982737664
H           -0.25414900980198       -1.50861535236243        1.00708867082388
H           -1.37943769054220        0.63213966513113        2.24114403076243
H           -2.56037741661912       -1.65271097196676        1.37587511556374
H           -3.61151993796966       -0.23152042065151        1.53609055238239
H           -0.90093546777453        2.06145166329942        0.03950565451409
H           -2.66546764876330        1.92078946462692        0.28336934221236
H            0.54436155908626        0.24344345644393       -2.70225214218806
H            0.68053813135875        1.36442862649219       -1.34957392474177
H            2.85268032131612        0.30653658968004       -1.66635570457785
H            2.13945181979919       -1.30321736086900       -1.69675978134223
H            2.28005633796485       -1.51007989198328        0.56297043230318
H            1.22950576846607        0.02896494042041        2.16467904797753
H            1.04693771512854        1.25649979564312        0.91024802487627
H            3.59978772006609        1.25644885932294        0.53788650994065
H            4.43625922185526       -0.28045323549411        0.22599848744962
H            3.74855819452256        0.04810610671717        1.83627314958499
