5

C           -0.54918426242768        0.14626578741930        0.00000000000000
O           -1.03357246462383       -0.95645384513226        0.00000000000000
S            1.17920344499561        0.51275601220755        0.00000000000000
H           -1.14791026491196        1.06774975910485        0.00000000000000
H            1.55146354696787       -0.77031771359945        0.00000000000000
