32

N           -2.34834524691723       -0.80022322240519       -0.78189227450905
C           -1.10037378763537       -0.32952020657687       -0.24594282882301
C           -1.08823646203606        1.18467135925317       -0.38526871433720
O           -1.72707160014036        1.74510944252388       -1.27323775004366
C            0.10047322727881       -0.93999437075103       -1.00397039262281
C            1.40240097283119       -0.51959424345790       -0.39294217467135
C            1.79530705695351       -1.04712044041107        0.84267481512995
C            2.19777161898919        0.46510068309610       -0.98568037627419
C            2.94954543543660       -0.59078343792335        1.47658220814350
C            3.35590574417006        0.92000892859499       -0.35851103221660
C            3.73062476021807        0.39772779326883        0.87859209623846
H           -2.83920801417876       -0.16496494710401       -1.39214119834117
H           -1.03070611130130       -0.62739786142163        0.80138883465468
H            0.03909213518879       -0.62554743298020       -2.04690663334828
H           -0.02139508290636       -2.02215128286072       -0.95659985538072
H            1.19166407627428       -1.82108345596106        1.30272892999188
H            1.90047796809489        0.87948036575199       -1.94154764490942
H            3.24187085429792       -1.00962221644488        2.43006513750363
H            3.96323351096455        1.67918580638538       -0.83281676747800
H            4.62786260887729        0.75060977960315        1.36813479778894
N           -0.31762028817000        1.83601958982195        0.51439638758879
H            0.28688332753014        1.27433864232496        1.09246314164586
C           -0.01556798254223        3.24440605381816        0.36250038178863
H            0.15664270978190        3.68748961039412        1.33922163847785
H            0.86494231773534        3.39920370191224       -0.26245894631385
H           -0.86746695716379        3.72366513634988       -0.10860085873293
C           -2.81242194412841       -2.04011247399123       -0.48617281588924
O           -2.19865040332065       -2.80666525482523        0.25067469107100
C           -4.13025455906023       -2.41061743810248       -1.12080432009254
H           -3.97826630067020       -3.28601523796346       -1.74791753890728
H           -4.55781228644238       -1.60938248180008       -1.71804111036706
H           -4.82719730700120       -2.68629788877484       -0.33323285176197
