12

N            1.15437691820986        0.00000000000000        0.00000000000000
B            0.00000000000000        1.10500692179372        0.00000000000000
N           -1.15437691820986        0.00000000000000        0.00000000000000
B            0.00000000000000       -1.10500692179372        0.00000000000000
H            1.74591887629361        0.00000000000000        0.81662194213987
H            1.74591887629361        0.00000000000000       -0.81662194213987
H            0.00000000000000        1.75295587537340        1.01656592771392
H            0.00000000000000        1.75295587537340       -1.01656592771392
H           -1.74591887629361        0.00000000000000       -0.81662194213987
H           -1.74591887629361        0.00000000000000        0.81662194213987
H            0.00000000000000       -1.75295587537340        1.01656592771392
H            0.00000000000000       -1.75295587537340       -1.01656592771392
