6

Cl           2.91311622441534       -0.00015064264055       -0.00004148056993
F            1.13477863558882        0.00571736111699        0.00012251943830
C           -0.92905429193836       -0.00106064223128       -0.00007448053707
H           -1.03672068726899       -0.85427568699013       -0.64940775376282
H           -1.03894852332690       -0.13758664811048        1.06313670325474
H           -1.04317135746992        0.98735625885546       -0.41373550782323
