15

C           -0.84648240761297        0.47214706343776       -0.75683526321463
C            0.40965499710373        0.22698420203998       -1.40671407092035
C            1.53548647178577       -0.15991741562900       -0.69949153525749
C            1.53548647178577       -0.15991741562900        0.69949153525749
C            0.40965499710373        0.22698420203998        1.40671407092035
C           -0.84648240761297        0.47214706343776        0.75683526321463
C           -1.44635975792577       -0.71101954008184        0.00000000000000
H           -1.57643842964330        1.08938575257190       -1.26680170677852
H            0.46600079249934        0.34134954972670       -2.48442998296932
H            2.44496158496912       -0.40339076837536       -1.23552783041296
H            2.44496158496912       -0.40339076837536        1.23552783041296
H            0.46600079249934        0.34134954972670        2.48442998296932
H           -1.57643842964330        1.08938575257190        1.26680170677852
H           -2.52548378936274       -0.78092481984320        0.00000000000000
H           -0.89452247091490       -1.64117240761895        0.00000000000000
