10

H            0.28599797979115        1.75681787521820        0.00000000000000
H            1.75921087489211        0.27088698056858        0.00000000000000
H           -1.26400891001058       -1.25318991103838        0.00000000000000
H           -1.58245488753067        0.81488694204791        0.00000000000000
H            0.80125494285799       -1.58940088718055        0.00000000000000
F            1.69960987952426        1.23483891215649        0.00000000000000
F           -0.64919295395062        1.99801085819161        0.00000000000000
F           -0.64919295395062       -1.99801085819161        0.00000000000000
F           -2.10083285100236        0.00000000000000        0.00000000000000
F            1.69960987952426       -1.23483891215649        0.00000000000000
