9

Si          -0.00570288506827        1.59116097037375       -0.00044155507264
Si           0.00570288506827       -1.59116097037375       -0.00044155507264
H            1.42729380823183        1.84563413295447       -0.05757745438526
H           -0.67352299419890        1.84340895843034        1.26836834642258
H           -0.77202568284118        1.83260846093355       -1.21469300331898
H            0.67352299419890       -1.84340895843034        1.26836834642258
H            0.77202568284118       -1.83260846093355       -1.21469300331898
H           -1.42729380823183       -1.84563413295447       -0.05757745438526
H            0.00000000000000        0.00000000000000        0.00868733270859
