28

C           -0.54008527147946        1.54017537471107       -0.77439126683538
C           -0.54008527147946        1.54017537471107        0.77439126683538
C           -0.16289357294748        0.25240463632265       -1.51225627904290
C           -0.16289357294748        0.25240463632265        1.51225627904290
C            1.30947436422288       -0.15635826601026        1.30431420346103
C           -1.15044479366198       -0.89869611339758        1.28136050194521
C           -1.15044479366198       -0.89869611339758       -1.28136050194521
C            1.30947436422288       -0.15635826601026       -1.30431420346103
C            1.95054714083971        0.31441967574934        0.00000000000000
C           -0.96973909809313       -1.69708316566458        0.00000000000000
H            0.12958682546183        2.32930607965560       -1.12465869858701
H           -1.53457502820160        1.82554384916752       -1.12391555982883
H            0.12958682546183        2.32930607965560        1.12465869858701
H           -1.53457502820160        1.82554384916752        1.12391555982883
H           -0.26884190877781        0.50289646912302       -2.57185585883819
H           -0.26884190877781        0.50289646912302        2.57185585883819
H            1.40698041653677       -1.24116582989079        1.39556802098904
H            1.90290734632323        0.26447614326993        2.11895129653977
H           -1.06174589492607       -1.58897321990670        2.12468960993652
H           -2.16878973947882       -0.49809609119915        1.31772059634471
H           -1.06174589492607       -1.58897321990670       -2.12468960993652
H           -2.16878973947882       -0.49809609119915       -1.31772059634471
H            1.40698041653677       -1.24116582989079       -1.39556802098904
H            1.90290734632323        0.26447614326993       -2.11895129653977
H            2.99690967946145       -0.00017557681328        0.00000000000000
H            1.97138915960435        1.40667086648366        0.00000000000000
H            0.01578299188347       -2.16677374591841        0.00000000000000
H           -1.68803535983885       -2.52008411752735        0.00000000000000
