17

C           -1.55179988983271       -1.26714490994347       -0.33496897606109
C           -1.80039287210646       -0.04787899676106       -0.00568699975091
C           -0.45861996757550       -0.57713595890466        0.45131396813985
C           -2.64903981205502        1.15470591826542       -0.00118099970727
C            0.79226294355258       -0.13572599047998       -0.20085298554902
C            1.97208586019232       -0.02635499787569        0.40402497115996
H           -0.33847297588081       -0.83260494073765        1.50499389300195
H           -3.57522574619484        0.99489792912591       -0.55321996049030
H           -2.11523484960174        1.99701685806878       -0.44631396846959
H           -2.89675679437384        1.44219989737793        1.02328692756385
H            0.71084194926384        0.11204499225650       -1.25727191048767
H            2.03893685534664       -0.28002197996087        1.45906789617665
H           -1.83445986952013       -2.17795484561376       -0.83094194102619
C            3.24005376981799        0.42084597002634       -0.25234898210225
H            4.01418271471673       -0.34902797522179       -0.18914598647028
H            3.08139278127912        0.65363095366430       -1.30569090719195
H            3.64749174083860        1.31194390694999        0.23343498364802
