4

Na          -0.00000000000052       -1.42998720356131       -0.00351123699941
Li           0.00000000000147        1.13856151990097        0.00280293267228
H           -1.43974988792587        0.14571284182922        0.00035415216355
H            1.43974988792493        0.14571284183110        0.00035415216354
