36

C            0.94051811938553        0.63393116350978       -0.65987657828335
C            0.29979976813406       -0.65801722412639       -0.03772381922716
C            1.24771357405224       -0.97572648712010        1.14074391471227
C            2.29829514620039        0.20541102504928        1.14678658457294
C            3.56358176695867       -0.15630482941433        0.25918276491036
C            1.98996567404258        0.09359583241855       -1.64010228370885
O            1.61465671036580        1.24743819501065        0.44892719623436
C            2.66343237051354        0.69577002051915        2.54052980543829
C           -0.00335983722903        1.68418469266451       -1.22585939131245
C            3.19422357375976       -0.32385825600233       -1.20144503963956
N            0.36932646861898       -0.93257515614590        2.34681742435232
N           -0.80318974036020       -0.63852217159655        2.02613383584396
N           -0.95659851229927       -0.44539756684320        0.67531609564746
C           -3.66955035645412       -0.56272807845149       -1.85811033397075
C           -4.79459286271150       -0.29319916260488       -1.07531168682647
C           -4.63207097920379       -0.07657237934987        0.29894728223981
C           -3.36979371469566       -0.12000823371618        0.88816737155485
C           -2.23878327166714       -0.39523765282766        0.09589844193463
C           -2.39716996814539       -0.61637870431262       -1.28338951016531
H            0.19792491372014       -1.45958589367079       -0.77510536024660
H            1.72709408273981       -1.95422850411225        1.10848355465370
Cl           4.34817485620186       -1.67958354706867        0.92092496988014
Cl           4.82750689809605        1.19338443714798        0.33251788919975
Cl           1.47438576547698       -0.13476919777449       -3.29591067585840
H            3.20186053006268       -0.08598339084817        3.08449928127528
H            1.74406024309617        0.92848513390863        3.08208979163698
H            3.28529129652839        1.59072615088168        2.47254836954830
H           -0.59160066422133        1.29305889151674       -2.05683348021861
H            0.57983398019509        2.54630975635325       -1.56648661629094
H           -0.68149585359809        1.99705398247512       -0.42679593997628
Cl           4.40878502607891       -0.97428533189547       -2.27593459961227
H           -3.77435501407730       -0.73549986730757       -2.92737917063856
H           -5.78290703759857       -0.25113000597811       -1.52693886088790
H           -5.49811153328336        0.13543438070146        0.92281655151256
H           -1.53599242253200       -0.82274251312599       -1.91110933520904
H           -3.24685899615090        0.04755049213631        1.95298155692449
