4

C            0.00000000000000        0.00000000000000        0.59823386990486
H            0.00000000000000        0.00000000000000        1.66055347234822
C            0.00000000000000        0.00000000000000       -0.59823386990486
H            0.00000000000000        0.00000000000000       -1.66055347234822
