14

C           -1.12325363486976        0.36103318290309       -0.03955921402842
C           -0.02548247093556       -0.62868888716506        0.41684315250686
C            1.04141698402445        0.40716118383862       -0.06359687349210
C           -0.06345831475469        1.49399804188181       -0.00246345927070
N           -0.10010763309770       -1.98259244070614       -0.09364800594532
H           -2.01482127894488        0.45523205128679        0.58162477940806
H           -1.43372662970256        0.14207440177100       -1.06508646590794
H           -0.01195496191542       -0.68547687247904        1.50888740932963
H            1.34088739943615        0.19974352740938       -1.09488794367792
H            1.93854193427577        0.54366625692263        0.54369154106754
H           -0.06442837926986        2.01793825762838        0.95509276421429
H           -0.08819301076552        2.23344143900370       -0.80298381932006
H           -0.04743912677826       -1.99577214953527       -1.10690243767701
H            0.65201912329784       -2.56175799275991        0.26298857279305
