12

N           -0.01004816877833       -1.30391749840130        0.00000000000000
H           -0.01207094500988       -2.31462989887992        0.00000000000000
C           -1.26778532016807       -0.68547468148462        0.00000000000000
O           -2.28583767554894       -1.35604146230651        0.00000000000000
C           -1.19603141049816        0.76453652863710        0.00000000000000
H           -2.11271315124978        1.32829892391548        0.00000000000000
C            0.00667852977477        1.37389944043155        0.00000000000000
H            0.11247550475200        2.44851416800750        0.00000000000000
N            1.17755366630002        0.66586515082035        0.00000000000000
H            2.06892727909637        1.13177909439392        0.00000000000000
C            1.23669344753968       -0.71640646261240        0.00000000000000
O            2.28215824379030       -1.33642330252116        0.00000000000000
