4

C            0.00000000000000        0.00000000000000       -0.59829030629242
H            0.00000000000000        0.00000000000000       -1.66297130274455
C            0.00000000000000        0.00000000000000        0.59829030629242
H            0.00000000000000        0.00000000000000        1.66297130274455
