10

H            0.00000000000000        1.61000788546070        0.00000000000000
H            1.53120889122554        0.49751996479852        0.00000000000000
H            0.94633893276953       -1.30252390752887        0.00000000000000
H           -1.53120889122554        0.49751996479852        0.00000000000000
H           -0.94633893276953       -1.30252390752887        0.00000000000000
F            1.84784486889674       -0.60040095716404        0.00000000000000
F            1.14203091912775        1.57187088822017        0.00000000000000
F           -1.14203091912775        1.57187088822017        0.00000000000000
F            0.00000000000000       -1.94293886196735        0.00000000000000
F           -1.84784486889674       -0.60040095716404        0.00000000000000
