4

N            0.00000000000000        0.69128300301314        0.00000000000000
F            0.75639500326382        1.89028700823908        0.00000000000000
H            0.37642200159712        0.18950900081986        0.80059200345969
H            0.37642200159712        0.18950900081986       -0.80059200345969
