16

C           -1.36569350597321       -1.35126340591010        0.00000000000000
C           -2.74840861202087       -1.02244210447192        0.00000000000000
C           -2.81565081231497        0.32496380142131        0.00000000000000
O           -1.57511580688918        0.86112000376633        0.00000000000000
C           -0.69546240304178       -0.16944610074111        0.00000000000000
C            0.69546240304178        0.16944610074111        0.00000000000000
O            1.57511580688918       -0.86112000376633        0.00000000000000
C            2.81565081231497       -0.32496380142131        0.00000000000000
C            2.74840861202087        1.02244210447192        0.00000000000000
C            1.36569350597321        1.35126340591010        0.00000000000000
H           -0.92067220402680       -2.32698991017769        0.00000000000000
H           -3.57905331565391       -1.70132500744118        0.00000000000000
H           -3.62797571586788        1.02367240447730        0.00000000000000
H            3.62797571586788       -1.02367240447730        0.00000000000000
H            3.57905331565391        1.70132500744118        0.00000000000000
H            0.92067220402680        2.32698991017769        0.00000000000000
