6

C            0.00000023830614        0.48549072166967        0.00000000000000
H            1.05342802028160        0.73734573589592        0.00000000000000
H           -0.52662686761901        0.73770293051328        0.91224859387825
H           -0.52662686761901        0.73770293051328       -0.91224859387825
H           -0.00025976180372       -0.89709269396934        0.00000000000000
H            0.00008523845399       -1.80114962462280        0.00000000000000
