6

C            0.00000000000000        0.50955800222868        0.00000000000000
H            0.03775800016515        1.59547900697824        0.00000000000000
O           -1.09958600480932       -0.14776900064631        0.00000000000000
H            1.96912900861249       -0.08722000038148        0.00000000000000
H           -0.13182700057658       -1.06447300465575        0.00000000000000
N            0.98880400432479       -0.33128300144895        0.00000000000000
