32

N           -1.58958338091834       -0.43644871860569       -0.41978943412484
C           -1.23038543875804        0.57235573984012        0.53729426663478
C           -0.75744688131476        1.77814316864413       -0.26618490061028
O           -0.50856806876696        1.70621302572959       -1.46501831249763
C           -0.13070147609678        0.09131168613679        1.51541016978009
C            1.06905406979146       -0.42918919014159        0.78447529881959
C            2.07237594092021        0.43295657634496        0.33132652273808
C            1.17219310762228       -1.79262151307601        0.49217592433630
C            3.15317913855472       -0.05456018405214       -0.39918007967965
C            2.25188370052254       -2.28465698848364       -0.23813158185473
C            3.24335717163217       -1.41503089133860       -0.68876970429579
H           -1.25672761975579       -0.27640440355891       -1.35935101477056
H           -2.10925265477148        0.84173919647825        1.12901415451226
H           -0.57381469294623       -0.69273474815821        2.12690368977159
H            0.14438231852523        0.92078903101531        2.16909939707025
H            2.00722191987651        1.49068588300473        0.55680136230903
H            0.40601730524307       -2.46731445324070        0.85504957334359
H            3.92276036141863        0.62426595385767       -0.74090823053685
H            2.32113065667023       -3.34297013832669       -0.45108137523342
H            4.08298267947788       -1.79480292622671       -1.25466849702174
N           -0.58307025591402        2.91354067755551        0.45035955416355
H           -0.92451655509548        2.94507132859453        1.39457135030998
C           -0.14338419959613        4.13612813934407       -0.19131577696100
H            0.24610956291803        4.81351387095891        0.56275568245591
H            0.64185315963070        3.89426068466373       -0.90151465429159
H           -0.95290496680242        4.62477649599712       -0.73270147730732
C           -2.18690271344755       -1.59728175753600       -0.05806035151613
O           -2.53167044679035       -1.82785333797452        1.09820741691608
C           -2.37208122470443       -2.59573007700135       -1.17441024624252
H           -3.33062531952659       -3.08962542691074       -1.04628110044005
H           -1.58984295940315       -3.34980326326454       -1.09683671650127
H           -2.31893723100436       -2.13964643065113       -2.15996391207812
