5

I            0.00341437701493       -3.21565583106449        1.72846281755987
C            0.10616725346435       -5.33339697532698        1.85072329709461
F            0.13527758459167       -5.87710099370501        0.63607454678204
F            1.20221888325821       -5.71699687300475        2.50157727294129
F           -0.95009654715549       -5.82192434146368        2.49689214192080
