6

Bi           0.00000000000000        0.00000000000000        1.03200459364186
H           -0.71872195048616        1.24486293475702        2.05029852446255
H           -0.71872195048616       -1.24486293475702        2.05029852446255
H            1.43744390097231        0.00000000000000        2.05029852446255
Br           0.00000000000000        0.00000000000000       -2.88356912870703
H            0.00000000000000        0.00000000000000       -4.29933102782210
