33

N            0.62976556154101        2.84775352482055        0.59170938223255
C            1.72146348385997        2.29873256380251       -0.04508657265308
C            1.34048551111558        1.17872464338224       -0.75152152246261
C           -0.07578238830691        1.03693865359824       -0.54734853677269
C           -1.03570832062388        0.11182571938872       -0.99926550499025
C           -2.35123022700558        0.27174670797149       -0.60049353312509
C           -2.74363819890095        1.33968163235390        0.23640940767415
C           -1.82089626488115        2.26837256599514        0.69075637510703
C           -0.48830035947936        2.10061657804019        0.29483140309540
H            0.63750456075865        3.69705946502517        1.12626734427740
H            2.69656341447563        2.74938153187509        0.04999942084563
H           -0.77396333887455       -0.71754822193561       -1.64163145907464
H           -3.78793812484730        1.42200662642216        0.50558738821467
H           -2.12469324293019        3.08998150803792        1.32664433016262
O           -3.31675615863574       -0.61177122949437       -1.04170050176319
C           -3.42900115024404       -1.75150014837810       -0.18115856300652
H           -2.47764721827620       -2.27838811115100       -0.10220456853287
H           -3.75178512780191       -1.44759716978359        0.81776436630375
H           -4.18246809682921       -2.39770810258378       -0.62414953142960
C            2.25624844599462        0.26774370832967       -1.50842346839263
C            2.68818441510969       -0.96930520396683       -0.70100152606939
N            1.60572349214877       -1.89212013851205       -0.41913054589919
C            0.83181254709384       -1.98163013194243        0.70582637420848
C            1.25533151715663       -1.16088819013776        1.90532628875577
H            1.78017347974484       -0.06521126795102       -2.43466740300064
H            3.15898138161651        0.81325166928197       -1.79639544798798
H            3.45908836040632       -1.50901116543511       -1.25579948665247
H            3.13293038334824       -0.65173422625675        0.24004640718982
H            1.25210351711973       -2.44463609910381       -1.18503749143115
O           -0.14485938380340       -2.72015107940529        0.73570437201164
H            2.26316644529075       -1.42818217121740        2.22486626607459
H            1.23872051803299       -0.09636326571039        1.67454030537016
H            0.55642056662655       -1.37007117535971        2.70873623172035
