5

C            0.60940849738924        0.00000000000000        0.22268656834826
H            1.68866124318428        0.00000000000000        0.23355209554556
C           -0.60940849738924        0.00000000000000        0.22268656834826
H           -1.68866124318428        0.00000000000000        0.23355209554556
H            0.00000000000000        0.00000000000000       -0.91247732778765
