12

O            1.39078378557965       -2.27008044685000        0.00000000000000
N            1.32421623344125        0.01286467895511        0.00000000000000
C           -1.39731377757397        0.02121283075891        0.00000000000000
C           -0.69483963831854        1.24865259931183        0.00000000000000
C            0.67049169335940        1.19894086499333        0.00000000000000
C            0.71105119124698       -1.23272538550967        0.00000000000000
C           -0.72716937354054       -1.17259342309761        0.00000000000000
H           -2.47938908118126        0.02315428886576        0.00000000000000
H           -1.20363418102725        2.19866594302692        0.00000000000000
H            1.29551128118976        2.08032189155831        0.00000000000000
H           -1.25169664292450       -2.11627793904450        0.00000000000000
H            2.36198850974900        0.00786409703161        0.00000000000000
