16

O            2.69258939939618        0.23470552638458        0.04683349996717
Si           0.39970950377547       -0.97041495899098       -1.72103792112100
O           -0.21196103518125        1.95074634099397        1.41156364420223
H            0.56781798815417        0.60544560541555       -1.67993012531905
H            3.38684304133461        0.12694650103712        0.71671966239654
P            2.61846321158004       -1.20469952212161       -1.02229958273487
H           -1.96345347015301        0.67696482391968       -0.87180966266230
H           -2.99673350680580       -0.49194544337514       -0.06012898050874
H            0.19142755064391       -0.88966986517310        0.71364119189569
Al          -1.77617274914560        1.28866844649535        1.48326386505816
H           -2.87246683358329        1.68664309984188        2.55929879925988
Mg           0.80846374388835        0.90744995456640        0.28241645625287
C           -2.01149062730732       -0.01475383645457       -0.01036200860282
H            3.14548203087847       -0.53166014718711       -2.15954736568425
H           -1.13205343391682       -2.25145370760662        0.29929084130861
B           -0.84646481355809       -1.12297281774540        0.01208768629185
