68

C            1.87744906527797        0.42018417529127        2.75714382145596
C            1.59869435350416       -0.36767243731657        4.04948748569489
C            1.53839830106805        0.52581858326141        5.31094831916821
C            0.76830575805879       -0.10541693963193        6.49895043362852
C           -0.76830575805879        0.10541693963193        6.49895043362852
C           -1.53839830106805       -0.52581858326141        5.31094831916821
C           -1.59869435350416        0.36767243731657        4.04948748569489
C           -1.87744906527797       -0.42018417529127        2.75714382145596
C           -1.73605114114562        0.43850969852388        1.48857986376527
C           -1.88989199660735       -0.37168493780604        0.19049550114755
C           -1.70850085313208        0.47862677687311       -1.07822984125178
C           -1.86142611163113       -0.33435487448051       -2.37476810321400
C           -1.69218272263780        0.51417873031478       -3.64630433679527
C           -1.85792781067955       -0.29963432119759       -4.94185471819868
C           -1.70413056561136        0.56181322656649       -6.20907684599828
C            1.73605114114562       -0.43850969852388        1.48857986376527
C            1.88989199660735        0.37168493780604        0.19049550114755
C            1.70850085313208       -0.47862677687311       -1.07822984125178
C            1.86142611163113        0.33435487448051       -2.37476810321400
C            1.69218272263780       -0.51417873031478       -3.64630433679527
C            1.85792781067955        0.29963432119759       -4.94185471819868
C            1.70413056561136       -0.56181322656649       -6.20907684599828
H            2.88276175792097        0.87175103505059        2.79495022433583
H            1.16189477771072        1.25731946695568        2.69605313297157
H            0.64961165806318       -0.90189132800517        3.92512890529626
H            2.36925017798506       -1.14306274319717        4.18898516351471
H            1.06840698786737        1.48921028541384        5.05441003926409
H            2.56745033896089        0.76209537955626        5.62375928156030
H            0.97899233904679       -1.18808383545576        6.52914834932463
H            1.15744012441978        0.31418107463548        7.43977502277744
H           -0.97899233904679        1.18808383545576        6.52914834932463
H           -1.15744012441978       -0.31418107463548        7.43977502277744
H           -1.06840698786737       -1.48921028541384        5.05441003926409
H           -2.56745033896089       -0.76209537955626        5.62375928156030
H           -0.64961165806318        0.90189132800517        3.92512890529626
H           -2.36925017798506        1.14306274319717        4.18898516351471
H           -1.16189477771072       -1.25731946695568        2.69605313297157
H           -2.88276175792097       -0.87175103505059        2.79495022433583
H           -0.74398102046792        0.91663344641961        1.49471206802971
H           -2.47941487602659        1.25282489433516        1.50508155096414
H           -1.14666709681818       -1.18638177532223        0.18749527501629
H           -2.88230570347542       -0.85250109357703        0.17061451653791
H           -0.71195467151105        0.94574077175282       -1.05942159505306
H           -2.44340055230353        1.30093544443843       -1.07471509479541
H           -1.11789476833544       -1.14814526334380       -2.37995277218394
H           -2.85343253149080       -0.81643541008350       -2.38779091105868
H           -0.69651445024308        0.98310890842616       -3.63913231640383
H           -2.42832575515232        1.33558364226294       -3.63599738593809
H           -1.11186544257678       -1.10993647453611       -4.95191084260338
H           -2.84789586971548       -0.78412578722095       -4.93803214433155
H           -0.70935140840541        1.02834428739790       -6.24109046411563
H           -1.82566681899101       -0.03859378882993       -7.12257415018924
H           -2.45685711183811        1.36491452427693       -6.22486743232252
H            0.74398102046792       -0.91663344641961        1.49471206802971
H            2.47941487602659       -1.25282489433516        1.50508155096414
H            1.14666709681818        1.18638177532223        0.18749527501629
H            2.88230570347542        0.85250109357703        0.17061451653791
H            0.71195467151105       -0.94574077175282       -1.05942159505306
H            2.44340055230353       -1.30093544443843       -1.07471509479541
H            1.11789476833544        1.14814526334380       -2.37995277218394
H            2.85343253149080        0.81643541008350       -2.38779091105868
H            0.69651445024308       -0.98310890842616       -3.63913231640383
H            2.42832575515232       -1.33558364226294       -3.63599738593809
H            1.11186544257678        1.10993647453611       -4.95191084260338
H            2.84789586971548        0.78412578722095       -4.93803214433155
H            0.70935140840541       -1.02834428739790       -6.24109046411563
H            1.82566681899101        0.03859378882993       -7.12257415018924
H            2.45685711183811       -1.36491452427693       -6.22486743232252
