8

C           -0.06967500030474        0.42675700186653       -0.00051700000226
H           -0.02983200013048        1.50990800660397       -0.00809900003542
C           -1.24918200546362       -0.19603300085740        0.01386800006066
H           -1.33033900581858       -1.27569400557958        0.01660900007264
H           -2.16496400946902        0.37356100163386        0.00673400002945
H            1.22059800533860       -1.15306900504325        0.13724800060029
N            1.18178200516883       -0.16941700074099       -0.07954500034791
H            1.94521000850787        0.34686800151712        0.32421600141804
