10

P           -0.82082894171321       -0.00422799944177        0.00855899952341
B            1.88945486569762        0.00652999968579       -0.01826299882843
H           -2.18029984521040        0.15533098906539       -0.43091096926204
H           -0.28390398005836        1.09396292249239       -0.66007295329662
H           -0.64948595408053       -1.29867590759636       -0.47820096585769
H           -1.10338492167419        0.13407399024601        1.37126690277433
H            1.96891186004391        1.21159691405540        0.05594799617920
H            2.67780881000224       -0.63452495490099        0.62713395531749
H            1.67289588147857       -0.40120897156580       -1.14007291899652
H            0.76262294584590       -0.22978898388634        0.61783695625974
