14

C            1.24499907171528        0.00000000000000       -0.66342576164713
C            0.00000000000000        0.00000000000000       -1.48950101619531
C           -1.24499907171528        0.00000000000000       -0.66342576164713
C           -1.24499907171528        0.00000000000000        0.66342576164713
C            0.00000000000000        0.00000000000000        1.48950101619531
C            1.24499907171528        0.00000000000000        0.66342576164713
H            2.19097460895286        0.00000000000000       -1.19755616201044
H            0.00000000000000        0.86814185486898       -2.16415273532174
H            0.00000000000000       -0.86814185486898       -2.16415273532174
H           -2.19097460895286        0.00000000000000       -1.19755616201044
H           -2.19097460895286        0.00000000000000        1.19755616201044
H            0.00000000000000       -0.86814185486898        2.16415273532174
H            0.00000000000000        0.86814185486898        2.16415273532174
H            2.19097460895286        0.00000000000000        1.19755616201044
