5

C            0.00000000000000        0.00000000000000        0.06556636111013
F            0.00000000000000        0.00000000000000       -1.31562849341613
H            0.51491629597397       -0.89186118627209        0.41668737743533
H            0.51491629597397        0.89186118627209        0.41668737743533
H           -1.02983259194794        0.00000000000000        0.41668737743533
