12

C            1.20625460544478       -0.69643142116477        0.00000000000000
C            1.20625460544478        0.69643142116477        0.00000000000000
C            0.00000000000000        1.39286284232954        0.00000000000000
C           -1.20625460544478        0.69643142116477        0.00000000000000
C           -1.20625460544478       -0.69643142116477        0.00000000000000
C            0.00000000000000       -1.39286284232954        0.00000000000000
H            2.14344169734799        1.23751664095613        0.00000000000000
H            0.00000000000000        2.47503328191226        0.00000000000000
H           -2.14344169734799        1.23751664095613        0.00000000000000
H           -2.14344169734799       -1.23751664095613        0.00000000000000
H            0.00000000000000       -2.47503328191226        0.00000000000000
H            2.14344169734799       -1.23751664095613        0.00000000000000
