10

C           -2.76215580395196       -0.69296795071985        0.00617199966071
I           -0.81525394231899        0.17313198761313       -0.00189499999674
H           -3.25706876875412       -0.41048797066072        0.92855593418461
H           -2.66063981097254       -1.77059987445114       -0.05590599591315
H           -3.30787376517618       -0.31316097782099       -0.85024493976487
O            2.23926984120513        0.92349193423493        0.00739199972843
P            2.79864180110345       -0.45414996798670       -0.00044700022347
H            2.53557081979930       -1.23539991249732       -1.14588091882094
H            2.37439983156354       -1.31345790676336        1.03513992663508
H            4.20320970140335       -0.55076296106614        0.09931999275170
