17

C            0.27999198037561        0.71620094910411       -1.22260291314121
C           -0.27999198037561       -0.71620094910411       -1.22260291314121
C            0.00000000000000        0.00000000000000        1.10358492155517
C            0.00000000000000        1.20484691423595        0.17999898745556
C            0.00000000000000       -1.20484691423595        0.17999898745556
C           -0.26072698132327        2.45540982555447        0.53291896210742
C            0.26072698132327       -2.45540982555447        0.53291896210742
H           -0.14889698953414        1.36050590321198       -1.98811785901230
H            1.36186090326550        0.67962895165984       -1.38674890178933
H            0.14889698953414       -1.36050590321198       -1.98811785901230
H           -1.36186090326550       -0.67962895165984       -1.38674890178933
H           -0.87641093776626        0.00629799940052        1.75549287527912
H            0.87641093776626       -0.00629799940052        1.75549287527912
H           -0.26598498134271        3.25796176852696       -0.19309098617308
H           -0.47491596602670        2.72294780654182        1.55981388921743
H            0.26598498134271       -3.25796176852696       -0.19309098617308
H            0.47491596602670       -2.72294780654182        1.55981388921743
