15

C            0.99943896747437       -0.79932525173195        0.17609897321330
H            1.54712471172892       -1.18583721528259       -0.68243078189916
H            1.46394322264855       -1.22225752196265        1.06517436202788
C            1.03350820912860        0.75102857141184        0.17965281305945
H            1.55315319958839        1.11561670829776       -0.70590308586009
H            1.55881697216398        1.15233837452012        1.04468593172279
C           -0.43689305632361        1.19483903371810        0.13802807285230
H           -0.57370971649014        2.15739739035051       -0.35228362730801
H           -0.83218331837152        1.28159167838132        1.15221849390336
C           -1.13954756625515        0.03972376777529       -0.57250522427809
H           -0.90632324117549        0.06569001778407       -1.63965549474655
H           -2.22310551167503        0.05895558318310       -0.46457696031288
C           -0.48810069098519       -1.18236912966182        0.07345856967918
H           -0.64783171235773       -2.10450045297726       -0.48285877086198
H           -0.90829046909893       -1.32289155380586        1.07089672880850
