6

C           -0.29406241719057        0.57696416453181        0.00000000000000
O            0.27238674434269        1.66771547557936        0.00000000000000
N            0.31681675701272       -0.61840317634890        0.00000000000000
H           -0.24000940177638       -1.45295541433663        0.00000000000000
H            1.33734304803432       -0.68370119496981        0.00000000000000
H           -1.39247473042279        0.51038014554417        0.00000000000000
