4

P            0.00000000000000        0.00000000000000       -0.57985930968839
H            0.59583463733479       -1.03201586477323        0.19328643656280
H            0.59583463733479        1.03201586477323        0.19328643656280
H           -1.19166927466958        0.00000000000000        0.19328643656280
