13

N            0.38513383402334        0.18486785259909       -0.03790653109978
C            0.19771501142246        0.09440560441954        1.39772818716467
C            1.63512778843268       -0.43271447119976       -0.44094428496048
C            0.30328247657234        1.56200534187952       -0.48908048549742
H           -0.78559377768230        0.47940721246683        1.67391182444850
H            0.26448924235021       -0.94595297587476        1.71883329062074
H            0.95612591447495        0.67060089150211        1.95607525563623
H            1.75188298173485       -0.36099107068806       -1.52266892552882
H            2.51459812790269        0.03879026257567        0.03148763797522
H            1.63247484617785       -1.48818703249120       -0.16416196680363
H            0.44361060491247        1.60880051111855       -1.56959510243285
H           -0.67903206228830        1.97300872433677       -0.24985542699374
H            1.06614505433080        2.20814417381455       -0.02079946254326
