4

C            0.00000000000000        0.00000000000000        0.59872436907236
H            0.00000000000000        0.00000000000000        1.66174695757252
C            0.00000000000000        0.00000000000000       -0.59872436907236
H            0.00000000000000        0.00000000000000       -1.66174695757252
