16

C            0.00504289146530       -0.51093708340336       -1.29794317986640
C           -0.01838773756322       -1.88236241212277       -1.06950686982205
C           -0.01578292572834       -2.37129465066091        0.23201237214169
C            0.01115541884651       -1.47597008211638        1.30059328001601
C            0.03219280420145       -0.10809397508506        1.07070056783914
C            0.02527092455291        0.40290221311625       -0.23588785743965
C            0.04001992836004        1.84237058005968       -0.53628860498087
C           -0.04710225511526        2.85536427971126        0.32717848442114
H            0.00356784694444       -0.13665360394323       -2.31591484380127
H           -0.03630633746738       -2.56791259838256       -1.90849475321487
H           -0.03157684690165       -3.43889899954378        0.41542406344833
H            0.01826803338935       -1.84889666779701        2.31813784442523
H            0.06074100356181        0.56935921163095        1.91516940733321
H            0.12412381426029        2.08013750748916       -1.59385599497992
H           -0.14533233712876        2.70965542988161        1.39640352055172
H           -0.02589422567750        3.88123085116616       -0.01772743607147
