10

B            0.00000000000000        0.00000000000000       -3.09349746990145
H            0.59502115553791        1.03060687297001       -3.11084893059680
H            0.59502115553791       -1.03060687297001       -3.11084893059680
H           -1.19004231107583        0.00000000000000       -3.11084893059680
P            0.00000000000000        0.00000000000000        2.84893433332941
H            0.59382478552652        1.02853469932564        3.60293014105652
H            0.59382478552652       -1.02853469932564        3.60293014105652
H           -1.18764957105306        0.00000000000000        3.60293014105652
H            0.00000000000000        0.00000000000000       -0.98966356009019
H            0.00000000000000        0.00000000000000       -0.24201693313855
