12

C           -2.26720424514885       -1.23364559270536       -0.00216873477295
H           -2.80739931381276       -1.52286695911473        0.89522941876219
C           -1.86643391538332        0.09630589921634        0.00183290936394
H           -2.79534339734275       -1.52104114146403       -0.90732652069714
N           -1.41648917971420        1.17525144848874        0.00605500007751
Li          -0.28613586194536       -1.97268669220850        0.00637792726645
C            2.26720424514885        1.23364559270536       -0.00216873477295
H            2.80739931381276        1.52286695911473        0.89522941876219
C            1.86643391538332       -0.09630589921634        0.00183290936394
H            2.79534339734275        1.52104114146403       -0.90732652069714
N            1.41648917971420       -1.17525144848874        0.00605500007751
Li           0.28613586194536        1.97268669220850        0.00637792726645
