20

C           -1.82634097035792        1.23514926226085        0.02248764865784
C           -2.03390695565580       -0.25579863187693       -0.21408033501747
C           -0.89899003618380       -1.14121356910021        0.29829962861059
C            0.46752186697289       -0.84166159031085       -0.33173432630398
C            1.34927080418181        0.08924334352094        0.49542061463433
C            2.66815671073115        0.40053532140909       -0.19928733584378
H           -0.96057303198610        1.60887123593672       -0.52219531285159
H           -1.67131398142911        1.44479024718377        1.08113157326454
H           -2.69294890875901        1.80606022176124       -0.30801432824924
H           -2.15951194672173       -0.43546861927693       -1.28453425881359
H           -2.96603388931599       -0.56745360945644        0.26097863162529
H           -1.16964601714121       -2.18062749496448        0.10640464220199
H           -0.82304704151899       -1.04150357591914        1.38492355164728
H            0.32207387722506       -0.41335562075531       -1.32845925562585
H            1.01619482782761       -1.77385352386621       -0.48318631570667
H            1.54334079042051       -0.38250962289320        1.46140054644410
H            0.81739784179586        1.01627427788550        0.70974259956288
H            3.30200266565257        1.04468627595256        0.40814062106746
H            2.49450572304323        0.90313228592466       -1.15085126808353
H            3.22184767121896       -0.51529661341565       -0.40658732122059
