4

N           -2.67736201165987       -0.80531300349444        0.08606300033698
H           -3.10827001356071       -1.70739400745071        0.23983500100631
H           -3.02219401319178       -0.45272300194920       -0.79759400347113
H           -3.01604401317401       -0.17659800076428        0.80327300349139
