6

F            0.00000000000000        0.00000000000000        2.08851985194030
I            0.00000000000000        0.00000000000000        0.11680199163481
N            0.00000000000000        0.00000000000000       -2.39220983035729
H            0.00000000000000        0.94686993299592       -2.74724280484969
H           -0.82001294198716       -0.47343496623337       -2.74724280484969
H            0.82001294198716       -0.47343496623337       -2.74724280484969
