59

H           -5.35169193009470       -1.39834945650436       -2.37287283313982
O           -4.51981128902257       -1.42858875428169       -1.87386476857734
C           -4.67013517844705       -0.59277381399914       -0.71606995085504
H           -5.58271871398260       -0.85113839532072       -0.16506149019297
H           -4.72025097499880        0.46744061067174       -1.00099663043309
C           -3.47060496374184       -0.76999510106119        0.18488498532227
H           -3.56327035727085       -0.06669375136590        1.02187902556590
O           -3.42831076673695       -2.12476130482218        0.72567124672047
C           -2.09121896169694       -2.57084977341935        0.83880193863115
H           -1.89817007527522       -2.95085714625716        1.84319216760215
N           -1.87046237715018       -3.71036649224151       -0.11145569373379
C           -2.76481331402970       -4.01921827049441       -1.10335402311551
H           -3.63735985213251       -3.37692491634830       -1.14427042046675
C           -2.56119772815887       -5.04082219809411       -1.97416726137273
H           -3.28612307694461       -5.26245338239291       -2.74617690657623
C           -1.36945811274114       -5.84256244090539       -1.88284226789800
O           -1.05895953500790       -6.79666377310882       -2.60823541674666
N           -0.50594077404332       -5.44742596939686       -0.84808674140986
H            0.35770846419104       -5.97435503177621       -0.74359644864871
C           -0.68367646157182       -4.41813374198974        0.05176769455585
O            0.13718727989313       -4.13654656220363        0.92486093251455
C           -2.10131416107607       -0.59628111376796       -0.47083646809675
H           -2.08597916219849       -1.03977488203468       -1.46954699731646
C           -1.18824912560880       -1.38700615721843        0.47255946466471
H           -0.25593599195094       -1.70725363494304        0.00049459802740
O           -0.92760944423755       -0.63171621101701        1.65646928093471
H           -0.91590164504287        0.30517622219503        1.37766800061383
O           -1.74754598626488        0.78354448848630       -0.52311296452283
P           -0.91821704511222        1.34095564890595       -1.85540826975162
O           -1.86924937756778        2.16944889012335       -2.66634451232899
O           -0.13068020069307        0.21901992849787       -2.45735132709728
O            0.15345397886051        2.30388288068430       -1.08829992420172
C           -0.33187098651468        3.36650200513723       -0.24213468461116
H           -1.19331092523964        3.02519322943856        0.34018687440366
H           -0.63209446525499        4.22352524406043       -0.85527024108378
C            0.77723823449531        3.78667267519106        0.69220094900063
H            0.43562695887744        4.66034621311265        1.26221420857620
O            1.05705211498882        2.70307585217985        1.62507318272396
C            2.43364951717719        2.65709145535756        1.94605805989596
H            2.57657030685207        2.65892305516183        3.02779518326381
N            3.01819007551967        1.37803764617900        1.41834769752781
C            2.31724442538423        0.54580160545861        0.58506375681059
H            1.31924749639602        0.88682118104893        0.34715477352324
C            2.84452868791203       -0.59737231369007        0.07906349278183
H            2.26460992893307       -1.22709276867876       -0.58194336039426
C            4.19862369176554       -0.96867718737431        0.39460287027748
O            4.80410284882054       -1.97490431585935        0.00378699787251
N            4.85455904496333       -0.03964205306212        1.21899931201737
H            5.82102717661750       -0.24298813850463        1.46142599439813
C            4.34597588125592        1.12588266414651        1.74996627380477
O            5.00897823417712        1.88956770993052        2.45252862434997
C            2.13565443806852        4.08887625356129        0.06764179377540
H            2.35639152243506        3.37915650394975       -0.73574614970500
C            3.08355837063429        3.86704656959891        1.25785860916274
H            4.11645169764592        3.67132488316973        0.95868383000602
O            3.01149627590755        4.97887009028078        2.15136504536081
H            2.88602308489283        5.76422153495009        1.58150498576286
O            2.14756913708583        5.43130435832675       -0.41861357203035
H            2.86941408605904        5.51447965232951       -1.06411252614203
