16

C           -1.45953300638364       -1.19105940520940        0.16003270069995
C           -2.84880731245999       -0.96285160421128        0.09931530043438
C           -3.15395591379464        0.32608720142623       -0.20600170090100
S           -1.74976440765305        1.25920170550744       -0.44445300194393
C           -0.71851170314260       -0.07161680031323       -0.10008870043776
C            0.71851170314260        0.07161680031323       -0.10008870043776
S            1.74976440765305       -1.25920170550744       -0.44445300194393
C            3.15395591379464       -0.32608720142623       -0.20600170090100
C            2.84880731245999        0.96285160421128        0.09931530043438
C            1.45953300638364        1.19105940520940        0.16003270069995
H           -1.00996550441735       -2.13398750933354        0.42285040184945
H           -3.59073461570500       -1.71892170751815        0.28987150126783
H           -4.12353191803533        0.77479890338878       -0.31224180136567
H            4.12353191803533       -0.77479890338878       -0.31224180136567
H            3.59073461570500        1.71892170751815        0.28987150126783
H            1.00996550441735        2.13398750933354        0.42285040184945
