4

P           -0.23337200097637       -2.14679000938024        0.00000000000000
H            0.55401000238078       -3.32349501452834        0.00000000000000
H           -1.08981900475851       -2.57377801123266        1.04169000452136
H           -1.08981900475851       -2.57377801123266       -1.04169000452136
