31

N           -0.15510136689135        0.87616328445523        0.55691594791933
C            0.07317877790588       -0.38219214344286       -0.14244005045759
C           -1.10992692294560       -1.32869444695573        0.11722330698936
O           -1.01782250701735       -2.32033504383540        0.83208111670910
C            1.39514147095638       -1.00405508127166        0.27893449785178
C            2.61689724965000       -0.48972329800733       -0.48059185838748
C            2.80704931164616        1.01964306702132       -0.37355216613317
C            3.86398114300439       -1.21371593232259        0.01396564643582
H            0.24857552731321        0.98683280283591        1.47151113017272
H            0.08730346471125       -0.14072688394609       -1.20818180682913
H            1.31015737587884       -2.08176296358824        0.14366131095121
H            1.53623544353013       -0.85885280995147        1.35543675196764
H            2.47216880564870       -0.73826823392635       -1.53656821562933
H            2.90225303739679        1.32030420190376        0.67226826256355
H            3.71857461430726        1.32370032938060       -0.88823875903137
H            1.97622854283601        1.57114680517288       -0.80992960078582
H            4.04924319727284       -0.97378352976427        1.06251477060982
H            4.74354682388250       -0.91697112421240       -0.55651147313140
H            3.75333012664352       -2.29463669028924       -0.06699090564471
N           -2.24086326347735       -0.93867194341357       -0.51398909231801
H           -2.21447386993248       -0.04423471583751       -0.98896255930363
C           -3.49846855371194       -1.62162898029565       -0.30582986273253
H           -4.12076179468753       -1.11099447888355        0.42942956053475
H           -4.04473481855070       -1.68969067854586       -1.24318030083701
H           -3.28077501390172       -2.62042193500337        0.05929577503820
C           -0.87460493685074        1.89117880773314        0.02438191645053
O           -1.43976178892722        1.79584528418030       -1.06631285792254
C           -0.91254912086765        3.16167071217835        0.83409218823714
H           -0.29996854320235        3.90778476748257        0.33112109481954
H           -0.54686631985424        3.03144051970185        1.84963532482593
H           -1.93379204862556        3.53097133865222        0.85786091016852
