16

B            0.05774882234812        0.86880447904363        0.14731314463741
N           -1.21755825270237        0.46443311064376       -0.31992833968489
H            1.47155478005532        2.62165695362666        0.21584416097550
O           -2.83760485597327       -3.86040567472104        0.03226449764032
B            1.13162490472004       -0.52394960924424        0.49555958647638
H            0.04937303141619       -1.45866675178658       -1.95951503696833
Al          -0.80796949000643       -1.29638793510203       -0.54360959756752
H           -0.23940154102770        3.10153674720212        0.16306759149356
B           -2.09246749072346       -2.92138599610083       -0.16776145820933
Mg           1.42193181339467       -0.07184800198632       -1.88938221156373
H           -2.01041902347113        1.09237950389526       -0.40897590740410
H            0.47463889527037        2.42701995248126        1.63895713767485
H            1.46220708672079       -0.33300063597783        1.63413945199692
H            0.52957696862033       -1.65042582524854        0.57500110406699
C            0.46022531423159        2.34618027766344        0.54164344365604
H            2.14653903712696       -0.80594059438874       -0.15461756722008
