7

O           -1.19972810840257        0.02902010101039        0.11574704569993
H           -1.63142412185208       -0.73331992339036        0.52840645674535
H           -1.69400174507504        0.29562363586870       -0.67242248389952
O            1.19972810840257       -0.02902010101039        0.11574704569993
H            0.00000000000000        0.00000000000000        0.05653796290847
H            1.69400174507504       -0.29562363586870       -0.67242248389952
H            1.63142412185208        0.73331992339036        0.52840645674535
