7

C           -0.11027400048231        0.52947600231580        0.04641700020302
H           -0.29580800129379        1.60122200700336        0.12429400054363
O           -1.10639400483910       -0.26857800117469       -0.02029700008877
C            1.10411600482914       -0.17565800076829       -0.04719800020643
H            1.27135900556062       -0.82422500360496        0.81194200355123
H           -0.09840200043038       -1.02833400449769       -0.33896900148257
H            2.01095000879540        0.27704900121174       -0.43020500188161
