16

C            1.37009600599247       -0.34089000149097        0.65378700285951
H            0.76413900334216       -1.22580900536139        0.83666100365935
O            2.06026800901111       -0.59664200260957       -0.57008700249342
C            0.48718300213082        0.89976900393537        0.59061400258320
H           -0.06642600029053        0.96478900421975        1.52924200668853
H            1.11812400489040        1.79179100783686        0.53280000233034
C           -0.48718300213082        0.89975700393532       -0.59063200258328
H            0.06642500029053        0.96476100421963       -1.52926000668861
H           -1.11812400489040        1.79178000783681       -0.53283400233049
H            2.65804101162563        0.14057500061484       -0.72235200315939
H            2.07624300908098       -0.25142300109966        1.48440000649241
C           -1.37009700599247       -0.34090200149102       -0.65378100285948
H           -2.07624300908098       -0.25145100109979       -1.48439700649239
H           -0.76414100334217       -1.22582500536146       -0.83663700365925
O           -2.06027100901113       -0.59663300260953        0.57009700249347
H           -2.65801401162551        0.14060700061498        0.72236900315947
