39

H            7.14558665727933       -0.89523703671070        0.49509615960245
C            6.25118518556370       -1.09958355654175       -0.09370403186629
H            5.87142429024129       -2.08730493938229        0.19106581069917
H            6.50475437093772       -1.12369621255382       -1.15702147550040
C            5.19990521746831       -0.05116096281911        0.22933516944793
O            5.16012633574539        0.53528193362050        1.30221754302850
N            4.30341484517149        0.20637558158240       -0.78959597825304
H            4.20721367684795       -0.52652695702127       -1.48226227256217
C            3.06298958329879        0.90138764808690       -0.48721345172964
H            3.31237798136343        1.67981594827006        0.23924425720198
C            2.46431856940929        1.51991022168723       -1.75962900003189
H            2.27790678972838        0.74327664400688       -2.50916760594204
H            1.50711065476329        2.00200105280329       -1.54554650060025
H            3.15311145851719        2.25661375235341       -2.18272085635080
C            2.04271001162951       -0.06921040689231        0.13536904986768
O            2.01457166274010       -1.25621572886749       -0.16725275048176
N            1.15862134172473        0.49984315541477        1.01233367157066
H            1.12684294367138        1.50995553896632        1.03508275485839
C           -0.08311666645956       -0.17414440945304        1.32511293005644
H            0.13571531591728       -1.23479889895086        1.46913987261388
H           -0.49166313197190        0.22542271731866        2.26051968925286
C           -1.12892378223775        0.01983763335416        0.21639058785946
O           -1.13665219579447        1.02266104586354       -0.48788948514176
N           -2.01936472872040       -1.00839585280261        0.07082343745810
H           -2.09740376627120       -1.65092507022764        0.84910904288963
C           -3.24868442258164       -0.80472950507865       -0.67966724662706
H           -2.98382971560630       -0.18681595729694       -1.54218420173736
C           -3.81953541095789       -2.15106729808080       -1.14355066580563
H           -4.08440279172744       -2.77298082549000       -0.28103254068452
H           -4.72482775925710       -2.00237903826409       -1.73743883847690
H           -3.08399549811514       -2.68657168668805       -1.74933519991632
C           -4.27822950779380       -0.06521402302397        0.20143379775546
O           -4.32329153868312       -0.25671811575206        1.41154751116952
N           -5.15358934033687        0.72835826634743       -0.47567872787944
H           -4.96219022842977        0.92947092867904       -1.44598175915509
C           -6.19934971547955        1.48486347277630        0.19443794061629
H           -5.96893038734148        2.55614819897259        0.21983479541695
H           -7.16144939453499        1.34075651650786       -0.30629317839179
H           -6.26421322792351        1.11536553500489        1.21762813776105
