16

C           -1.38263200604729       -0.46056700201441        0.50763800222028
H           -2.03440800889801       -0.58122400254214        1.37871500603016
O           -2.15602800942994       -0.42233000184717       -0.69279800303013
C           -0.51993700227408        0.78714100344276        0.67747600296311
H           -1.18276600517313        1.65777500725071        0.69459700303800
H           -0.03268200014294        0.75023900328136        1.65641700724477
C            0.53150200232466        0.96373000421512       -0.42551600186110
H            0.75093600328441        2.02508000885721       -0.56296700246228
H            0.12897000056408        0.59421900259897       -1.36966800599059
H           -2.76303001208482        0.31905500139547       -0.61741000270040
H           -0.75476500330116       -1.34204100586976        0.42354500185248
C            1.85130500809716        0.27325600119516       -0.12984300056790
H            2.55526801117612        0.46396000202925       -0.94552000413547
H            2.28004600997237        0.68490600299561        0.79076600345862
O            1.61953400708345       -1.12839500493533        0.01415900006193
H            2.46294801077234       -1.54752600676850        0.20210400088395
