9

S           -2.34506777494561        0.45185473928634        0.00000000000000
O           -1.60991441965692       -0.31711402008695       -1.29132041805716
S           -0.35684957745374        0.38604576186270       -2.06347694443566
O            0.97908131742565       -0.35470875517619       -1.28071952673871
S            1.57362252569905        0.39687781687179        0.00000000000000
O            0.97908131742565       -0.35470875517619        1.28071952673871
S           -0.35684957745374        0.38604576186270        2.06347694443566
O           -1.60991441965692       -0.31711402008695        1.29132041805716
H            2.74681060861657       -0.27717852935726        0.00000000000000
