16

C           -0.13467399041812       -1.13633591927577        0.00000000000000
S            0.62105095585516        0.43966296871028        0.00000000000000
C           -0.13467399041812        1.35304990373331        1.35743190379782
C           -0.13467399041812        1.35304990373331       -1.35743190379782
H           -1.21597891359074        1.28130990912047        1.26341791008448
H            0.20397798547523        2.38699083069829        1.32063890607495
H            0.19944498575194        0.87496193784806        2.27453383852823
H           -1.21597891359074        1.28130990912047       -1.26341791008448
H            0.19944498575194        0.87496193784806       -2.27453383852823
H            0.20397798547523        2.38699083069829       -1.32063890607495
B            0.85433293955455       -2.26722983885326        0.00000000000000
H            2.03668585561468       -2.06506085361116        0.00000000000000
H            0.44679996852432       -3.38910975911198        0.00000000000000
B           -1.63092988441330       -1.23405191239995        0.00000000000000
H           -2.34792083317956       -0.26684298080564        0.00000000000000
H           -2.14015484800069       -2.31229283602017        0.00000000000000
