4

C            0.73634141522994       -0.12233946548547        0.00000000000000
H            1.13805262465319        0.91516660243418        0.00000000000000
O           -0.56183254449808        0.08325859549177        0.00000000000000
H           -0.99440060520803       -0.77891127334425        0.00000000000000
