4

P            0.00000011906487        0.00000000000000        0.06798932254049
H            1.19034202294886       -0.00010123424633       -0.69646119183771
H           -0.59508517258069        1.03091753964681       -0.69645883964500
H           -0.59526051492035       -1.03081630645883       -0.69645883805747
