17

C            0.00000000000000       -2.55684792625794       -0.29950638693247
C            0.00000000000000       -1.28238246559457        0.54608119063747
C            0.00000000000000        0.00000000000000       -0.28975184594939
C            0.00000000000000        1.28238246559457        0.54608119063747
C            0.00000000000000        2.55684792625794       -0.29950638693247
H            0.00000000000000       -3.45223662206629        0.32676560446179
H           -0.88203971860645       -2.60330739228052       -0.94440641286107
H            0.88203971860645       -2.60330739228052       -0.94440641286107
H            0.87542516807083       -1.28244500088233        1.20530740060982
H           -0.87542516807083       -1.28244500088233        1.20530740060982
H            0.87592704645434        0.00000000000000       -0.95026646068962
H           -0.87592704645434        0.00000000000000       -0.95026646068962
H            0.87542516807083        1.28244500088233        1.20530740060982
H           -0.87542516807083        1.28244500088233        1.20530740060982
H            0.88203971860645        2.60330739228052       -0.94440641286107
H            0.00000000000000        3.45223662206629        0.32676560446179
H           -0.88203971860645        2.60330739228052       -0.94440641286107
