8

C            0.96297688265708        0.08020050800909        0.00000000000000
C           -0.53055655862975        0.25130898303998        0.00000000000000
O           -1.16950405240901       -0.94846549611277        0.00000000000000
O           -1.12560067609533        1.29823128570272        0.00000000000000
H           -2.12208764069881       -0.76329786680004        0.00000000000000
H            1.27222460681444       -0.48716889603493       -0.87972382175585
H            1.27222460681444       -0.48716889603493        0.87972382175585
H            1.44032283154692        1.05636037823088        0.00000000000000
