16

C           -1.82268700797199       -0.65263000285445       -0.18124300079271
H           -2.34442701025395       -1.48638100650107        0.28568000124949
O           -2.61740801144791        0.49867400218108        0.10375900045382
C           -0.40627600177695       -0.55213700241491        0.36770800160826
H           -0.45862700200592       -0.41324700180744        1.45047100634401
H            0.11029900048242       -1.49520500653966        0.18110800079212
C            0.39682300173561        0.58841500257359       -0.25458100111348
H           -0.05992700026211        1.54978800677840       -0.00584200002555
H            0.39716300173709        0.49364300215908       -1.34426500587949
H           -2.29447601003548        1.21641900532032       -0.44594000195043
H           -1.79321100784307       -0.84257700368523       -1.25956200550902
C            1.83848100804107        0.61909700270778        0.22051100096446
H            2.34679001026429        1.49826900655306       -0.18625700081464
H            1.86559800815967        0.68485200299538        1.31335900574432
O            2.47029401080447       -0.57861600253073       -0.22995100100575
H            3.36968101473817       -0.58249400254769        0.10641100046541
