15

C           -0.09469662704694        0.95373252182832        0.00000000000000
C            0.06877767014732       -1.19952731068159        0.67455384071314
C            0.06877767014732       -1.19952731068159       -0.67455384071314
N           -0.01686685124083        0.12105663295830       -1.05555979415779
N           -0.01686685124083        0.12105663295830        1.05555979415779
H            0.12198305729142       -2.01801185807560        1.37467397936930
H            0.12198305729142       -2.01801185807560       -1.37467397936930
C           -0.02939883039900        0.56257425114530       -2.42912422769432
C           -0.02939883039900        0.56257425114530        2.42912422769432
H            0.86628901297992        0.22994223179631       -2.95581983687911
H           -0.90470670748240        0.17899163512850       -2.95487171262751
H           -0.05872903777295        1.64810815681463       -2.43901620706915
H           -0.90470670748240        0.17899163512850        2.95487171262751
H            0.86628901297992        0.22994223179631        2.95581983687911
H           -0.05872903777295        1.64810815681463        2.43901620706915
