33

N            1.13075091968305       -2.66737753769719       -0.11691690099088
C           -0.11123299185938       -2.06981158023507       -0.15183889849105
C            0.03045999767570       -0.69863667756474       -0.12412190007652
C            1.44129989784139       -0.44175369612345       -0.06954490415298
C            2.19352384420055        0.75215121930611       -0.02182890773149
C            3.57625174585605        0.65198222627914        0.02533308936367
C            4.21918870067221       -0.61092968402710        0.02603808887797
C            3.49687275170147       -1.78766760018764       -0.01946590764284
C            2.09921185069102       -1.69122260711405       -0.06713390451624
H            1.29707790797249       -3.65658146764522       -0.13268489965046
H           -1.00151292876712       -2.67507653746781       -0.19513589530662
H            1.69162187986670        1.70825715151515       -0.02131390770724
H            5.29950362377253       -0.62516368262063        0.06402208616986
H            4.00237871606013       -2.74467053222005       -0.01776890776639
O            4.43435668491208        1.71801415056373        0.07470108548996
C            3.83811572738903        3.00386805941418        0.07751708561329
H            3.19393877331083        3.14065804957845        0.94902202357397
H            3.25670276882040        3.17362404723725       -0.83154785010327
H            4.65797566942756        3.71439900911446        0.11951808245930
C           -1.04659192560700        0.34290524819729       -0.13973489902679
C           -2.44958682600958       -0.24319670994887       -0.24919289153962
N           -3.43282175608347        0.82663021399550       -0.26459089002251
C           -4.77512666098576        0.70805722234307       -0.01550790817268
C           -5.22927762858821       -0.59648668477742        0.60726004781162
H           -0.88003293756146        1.02379819995158       -0.98165383916927
H           -0.99424192964138        0.95265020488060        0.76656803645493
H           -2.63846681255879       -0.88549366461673        0.60966104758661
H           -2.51652082155108       -0.86304366593847       -1.14969482715306
H           -3.19553877303213        1.66551115464948       -0.77221885393854
O           -5.55114160563523        1.61973015767174       -0.26031989069894
H           -4.73601966392562       -0.76356167299213        1.56478497982442
H           -4.99915664526987       -1.44207362469494       -0.04129090623002
H           -6.30196155277704       -0.53948868882621        0.75908203686182
