6

C           -0.69270808872525        0.00875829295281        0.00000000000000
H           -1.05520837015497        0.55790864626574        0.87821493727475
H           -1.13398163685249       -0.98600273220769        0.00000000052918
H           -1.05520837015497        0.55790864573657       -0.87821493780393
N            0.74858121638348       -0.08036039668473        0.00000000000000
H            1.09633243198991        0.88257567446975       -0.00000000052918
