26

N           -0.79699810622324       -0.42338071491102        0.34830237121553
C            0.06726880893570        0.42849415213864       -0.43729907458910
C            1.54957199537600        0.05309973772281       -0.36932033378730
O            2.39392034368323        0.78809323972025       -0.86777825271662
C           -0.10492577883394        1.88047749902099       -0.01001970940007
O            0.08619445982892        1.86162231371850        1.41053379579141
C           -1.46699690997969        2.43399082255699       -0.37527855847613
H           -0.91231763234499       -0.15418427915884        1.31340377901222
H           -0.23280402475572        0.31453959615578       -1.47955529023927
H            0.69127581520843        2.44906138864259       -0.49146735625557
H            0.06381845876234        2.77071146755747        1.72310400214559
H           -1.57353828532174        3.45526506669469       -0.00971074046958
H           -2.25714949723876        1.82903042797528        0.06695079182595
H           -1.59848066976026        2.44616634460712       -1.45638964998781
N            1.81950867145721       -1.12283726663075        0.23576189321368
H            1.03389338496939       -1.64464632812577        0.58332946695478
C            3.16130566513157       -1.65162122576394        0.32569310156971
H            3.43441579709880       -1.84320399819885        1.36151451121688
H            3.26093164522696       -2.57296139306260       -0.24583815966944
H            3.83029476754836       -0.90346493994038       -0.08824522931337
C           -1.76731293593394       -1.19511427106466       -0.23885022968883
O           -1.82562346128322       -1.37850175204135       -1.44506531783731
C           -2.75243642760739       -1.81500512984489        0.72331661876188
H           -2.87488919973475       -2.86412950706130        0.46928085528575
H           -3.71689331616090       -1.32826143374052        0.59008131410505
H           -2.44918358089475       -1.72293881657127        1.76343241620227
