12

C           -0.18983317683028       -0.64539643782281        0.06980776130532
C            1.12163632890577       -0.35406557754860        0.43909651592050
C            1.48652095950168        0.96257263621006        0.71210722811459
C            0.54932939240263        1.98920933270032        0.61786895870241
C           -0.75762713831368        1.68186263735606        0.24685690907969
C           -1.13819046497817        0.37055181762070       -0.02858232512501
Br          -2.03846278691574        3.07045985442945        0.11516542950371
H            1.85293525310429       -1.14643470401423        0.51411920624864
H            0.82504872660856        3.01217700217453        0.82938547562753
H            2.50225977994427        1.19643356123291        1.00031733737514
H           -2.15714019643480        0.15160816166310       -0.31318147236978
H           -0.48082048910299       -1.66498363828224       -0.14291841662509
