7

C           -0.26241955575477       -0.59415449640658        0.00000000000000
C            0.31843989523313        0.79068732744163        0.00000000000000
O           -0.32857201908352        1.80653351360331        0.00000000000000
H           -1.34937316332109       -0.55869976630221        0.00000000000000
H            0.09702134098684       -1.13980204820594        0.87667771481369
H            0.09702134098684       -1.13980204820594       -0.87667771481369
H            1.42788216095258        0.83523751807572        0.00000000000000
