12

N           -1.17287665058495       -0.56672852688595        0.00000000000000
H           -2.07935837293374       -1.01256867899068        0.00000000000000
C           -1.17582477687068        0.83395450392690        0.00000000000000
O           -2.22860646549174        1.45029081675026        0.00000000000000
C            0.15584512837597        1.41017068377918        0.00000000000000
H            0.25707291585731        2.48167373239337        0.00000000000000
C            1.23484193995078        0.60037608501424        0.00000000000000
H            2.24541049768011        0.98020271239032        0.00000000000000
N            1.11801252385266       -0.76157471212363        0.00000000000000
H            1.92997857308794       -1.35235620578426        0.00000000000000
C           -0.09450162532906       -1.42553140014336        0.00000000000000
O           -0.18999368759460       -2.63790901032638        0.00000000000000
