11

C            0.00000000000000       -1.28520647705435       -0.26484003551599
C            0.00000000000000        0.00000000000000        0.53088485767390
F            1.10274159242449        0.00000000000000        1.37023785993468
F           -1.10274159242449        0.00000000000000        1.37023785993468
C            0.00000000000000        1.28520647705435       -0.26484003551599
H            0.00000000000000       -2.13344197178447        0.41963102130076
H           -0.88808833469534       -1.33557030307998       -0.89523563727820
H            0.88808833469534       -1.33557030307998       -0.89523563727820
H            0.88808833469534        1.33557030307998       -0.89523563727820
H           -0.88808833469534        1.33557030307998       -0.89523563727820
H            0.00000000000000        2.13344197178447        0.41963102130076
