8

C            0.54650139409106        0.19382867023085        0.00000000000000
O            1.19306632320193        1.23303023544776        0.00000000000000
O            1.08204077530050       -1.01745369592678        0.00000000000000
H            2.07347154722983       -0.95117334444930        0.00000000000000
C           -0.95132839944298        0.15410377909268        0.00000000000000
H           -1.34655985221410        1.16255684291541        0.00000000000000
H           -1.29859589408312       -0.38744624365531       -0.87672509602828
H           -1.29859589408312       -0.38744624365531        0.87672509602828
