13

O            0.00000000000000        0.00000000000000        1.49089050020692
C           -1.16802047197143        0.13486346195500        0.66626401020839
C           -0.73340713792027       -0.22516106270344       -0.75581833682650
C            0.73340713792027        0.22516106270344       -0.75581833682650
C            1.16802047197143       -0.13486346195500        0.66626401020839
H           -1.94898214132612       -0.52028687097841        1.05862880843368
H           -1.52882604934885        1.16957385814473        0.71831640419929
H           -1.33838638851057        0.26863758519206       -1.51749607049634
H           -0.79938574205075       -1.30461008600876       -0.91534006562198
H            1.33838638851057       -0.26863758519206       -1.51749607049634
H            0.79938574205075        1.30461008600876       -0.91534006562198
H            1.52882604934885       -1.16957385814473        0.71831640419929
H            1.94898214132612        0.52028687097841        1.05862880843368
