33

N           -0.30967134173090        2.29547447348258       -0.58406483742678
C            0.72784858481073        1.43978053406330       -0.89038181556364
C            0.32747261331805        0.13286562675309       -0.70864082858914
C           -1.03581928990282        0.19223462289402       -0.26053386008857
C           -1.97950122283804       -0.79315430714155        0.08629811490550
C           -3.23640613358381       -0.38651833593469        0.49848508573253
C           -3.58357110921316        0.98116756697313        0.57211008048035
C           -2.67431217395601        1.96884549642699        0.22818810494512
C           -1.40265926420822        1.55896152545973       -0.19081886526282
H           -0.25896234546339        3.29727840228218       -0.61168283525199
H            1.67715151745676        1.83166050616706       -1.21725479252693
H           -1.74581223942056       -1.84909723241639        0.05076511775572
H           -4.57237003920377        1.24538054815329        0.92213605587552
H           -2.94122115480174        3.01580942216379        0.29262510055709
O           -4.16155806815377       -1.33890026871952        0.88781505816320
C           -5.14662299832924       -1.58215825145622       -0.11326487048517
H           -4.68372403132909       -1.96044922425186       -1.02786380600401
H           -5.70622195831737       -0.67389231564780       -0.34763685393275
H           -5.82389495024083       -2.33050819834815        0.28976810084181
C            1.11988655705859       -1.11768828431942       -0.96470781030439
C            2.62328645029477       -0.88316030101760       -1.05575080365590
N            3.12667141418263       -0.35882633796832        0.20310710702563
C            4.46092631977453       -0.30842834179354        0.46959508771180
C            4.83784429308300        0.31300161395514        1.79996699359047
H            0.78667958023994       -1.58337225118354       -1.89602674433960
H            0.92279857105490       -1.84021423303289       -0.16805086706486
H            2.85581043367795       -0.19933534926193       -1.87732274562809
H            3.14320741302017       -1.81595223474506       -1.26640178890380
H            2.48130346000622        0.11351262817646        0.81156806336181
O            5.30065325973983       -0.74752431035177       -0.30438485728884
H            5.38333425407248       -0.42521733366098        2.38453195176496
H            3.97907535357545        0.65844958945536        2.37283795298277
H            5.50837824532674        1.14997455484502        1.61499100662293
