5

C            0.50016191800801       -0.63551495497329        0.00000000000000
C            0.50016191747883        0.63551495497329        0.00000000000000
H            0.83094989403049        1.65225588264920        0.00000000000000
H            0.83094989455967       -1.65225588264920        0.00000000000000
O           -0.85565198625000        0.00000000000000        0.00000000000000
