16

H           -0.95007220100351       -1.99958299783346       -0.57089520517198
S           -1.41967044751877        0.20581112659223        0.87957118797737
B            0.06077414944778        0.78772225926047        1.93499148763591
O           -0.57150545884334       -0.08603956628378       -2.41147677398465
Mg           0.31910884976253        2.16336189829865       -0.01370237260465
H           -0.64842247624899       -0.95242045994479       -1.96204713734940
H           -0.70624510245723       -2.24804577203392        1.44355258228689
H           -0.08613990337772        1.27673524240325        3.01118076199990
Si           1.52298494637634       -0.17526627074324        0.99650087426357
H            0.36242991531507        0.17351828721502       -2.22544255610131
B           -0.63987988530675       -1.52008144894083        0.49776633236731
Li          -1.72285602848040        1.17075744526407       -1.51723334709340
F           -0.96917466439302        2.75451181517895       -1.20110669819379
H            2.59765613322130       -1.01907127944527        1.58260985836667
H            0.67102973598477       -1.37802689177891        0.29190899444927
S            2.17998243752197        0.84611661279161       -0.73617798884773
