29

C           -1.72801285195942       -0.65492229237275       -1.43270003933853
H           -1.33449533076339       -1.65454715117573       -1.66709020690261
H           -1.54041053367576       -0.00408237442061       -2.29720823214776
H           -2.81880769733100       -0.75182453816077       -1.32615482647578
C           -1.13030594227331       -0.07684431458144       -0.13139172287870
C            0.46451278449078       -0.07882960009510       -0.17659313766951
C            1.03071868838329        0.78143034467680        0.99175320423412
H            0.50608509646576        0.51439709571785        1.92332432057966
H            0.78534069309673        1.83702201402553        0.79722250668458
C            2.53879100747259        0.67815600991615        1.25238756319390
H            3.13543596332643        0.92551702197491        0.36210441460383
H            2.83535075557502       -0.32623009480642        1.58469720130409
H            2.83312021335777        1.38310097106366        2.04342938006048
C           -1.69177508294738        1.35179999007528        0.03777475883262
H           -1.30985133167101        2.04379967069707       -0.72704967184529
H           -2.78776871743026        1.33166818753291       -0.06032388344404
H           -1.46086109122403        1.77482734376684        1.02496393571649
C           -1.66128724783235       -0.93038964857738        1.04045782047499
H           -2.75414587279040       -0.82232614310988        1.11183738254095
H           -1.44676983437307       -1.99900667841582        0.90174049271796
H           -1.24045074801430       -0.62263748855641        2.00843515743826
C            1.00590370165636       -1.51966507012751       -0.06398995415648
H            2.08446323372049       -1.54400991983912       -0.27391025230533
H            0.85646123524778       -1.94260330497915        0.93959277653203
H            0.52448021988979       -2.19188838606179       -0.78831191751766
C            0.96931912879192        0.51130677430888       -1.51043043888492
H            0.54608651572708        1.50654280830177       -1.71062263190760
H            2.06300873353034        0.61885137585310       -1.49236279582535
H            0.72586431155357       -0.13861260263082       -2.36158120361442
