33

N            0.88062239198543        2.79478313493076        0.13967408113894
C            1.76901632914243        2.11334018337150       -0.66036086218051
C            1.18976736986805        0.95059426565745       -1.11810182989547
C           -0.13130253622822        0.91491426837026       -0.56236986888925
C           -1.19627646063974       -0.00859366606682       -0.66677486198825
C           -2.36530537769708        0.25243131558182        0.03243208857734
C           -2.49586036806615        1.41434023317220        0.83338903163914
C           -1.47078444105102        2.33548416737570        0.93540102453505
C           -0.28754952522474        2.07669418578605        0.22933007456181
H            1.08314837763685        3.64445807463796        0.63356904604422
H            2.76357825825663        2.49507315599730       -0.82347985068574
H           -1.09395246750616       -0.88553360376962       -1.28924281735732
H           -3.42937230189430        1.56235522241101        1.35820799459823
H           -1.58624843297939        3.22178310465498        1.54591898106260
O           -3.47565629874467       -0.55250262758707        0.02605508884019
C           -3.39962630417133       -1.71941254446347       -0.77199485413920
H           -3.23517031557540       -1.47283356197013       -1.82350577951158
H           -2.60280136039677       -2.38467449730466       -0.42926687860778
H           -4.35663223610934       -2.22094150871503       -0.66404386201277
C            1.86454732204558       -0.14741465635857       -1.88021177547780
C            2.61972926847003       -1.10331058829570       -0.93643784243858
N            1.78903932745263       -1.58202555456188        0.15482008014223
C            1.78151132812264       -0.94952559944798        1.37353599351967
C            0.62194641051315       -1.32412457269453        2.27275992965555
H            1.12237637477051       -0.71049561615306       -2.45278873512444
H            2.57590427186284        0.25706131507540       -2.60412572426484
H            3.01184424076467       -1.95519252770813       -1.49519780307155
H            3.45429620938945       -0.58161062545160       -0.47341587560424
H            0.95929038628532       -2.09828051780210       -0.08281590326790
O            2.63856426711680       -0.14744865599437        1.71237296923678
H           -0.18053053270241       -0.60143462402575        2.11633494079143
H            0.23579343760732       -2.32080150193913        2.06225794430574
H            0.94609338769644       -1.26715557671284        3.30807585586838
