4

O            1.38050821175158       -0.61427580635959        0.64553687442143
O            0.75999632607527        1.34165120488517       -0.38416261252980
C            0.56237192001219        0.17240264753467        0.09422136344533
H           -0.50009984446281       -0.19426001642102        0.00145233003039
