14

C            0.28016415036970        0.23637994890763        0.47211747890138
H            0.73225938146808        0.43131739514858        1.45294436283931
C            1.18621229658185       -0.80444207802629       -0.18702961769571
O            2.01759994257661       -0.29705965105742       -1.06621459307831
H            1.78916037406833        0.66516177414062       -1.11793622646701
O            1.17423710388179       -1.97931940784615        0.07955593307868
N            0.35131330656085        1.45902352528650       -0.30236045545325
H           -0.38999333303584        1.49556620563439       -0.99491590153410
H            0.27082898997574        2.28020785284912        0.28138195865622
C           -1.12048806199016       -0.31060434599548        0.72607138927382
H           -1.09103766273356       -1.21052350564778        1.33858290105857
H           -1.70025178040970        0.43419646177587        1.27253346467478
S           -2.05925562725318       -0.63417937345808       -0.79836332521084
H           -1.44074908006050       -1.76572480171152       -1.15636736904350
