5

N            0.00000000000000        0.00000000000000       -2.03839285535288
C            0.00000000000000        0.00000000000000       -3.17826577446843
H            0.00000000000000        0.00000000000000       -4.24620269861152
Br           0.00000000000000        0.00000000000000        0.49015196537331
F            0.00000000000000        0.00000000000000        2.26991283875147
