44

C            4.23498342462273       -0.88148490434791        2.26035224398666
C            4.20665692280439       -0.21490174204494        3.49305665894228
C            3.13772677459744        0.63766353229112        3.79031726236573
C            2.11526480792516        0.82649931687697        2.85979353469302
C            2.14362262080262        0.18786549669760        1.59976067327960
C            3.21968287969559       -0.68657635767743        1.32630323334222
C            1.02866038480787        0.41256187154794        0.68247354280196
C            0.98117344658289        0.30590221069502       -0.68032884902764
C           -0.28273291809709        0.40751880396766       -1.40560004150788
C           -1.52097058018201        0.01171216663137       -0.99006534030513
C           -1.82702966485794       -0.75421860704122        0.19188516677917
C           -3.05737704415500       -0.99241383646368        0.72402533562215
C           -6.77979786814059       -0.62285518726082        0.28704872253075
C           -5.52571265999246       -1.12987743998695        0.62508175409407
C           -4.34390230311283       -0.40166946697022        0.35844729550640
C           -4.47735883201003        0.88121878450593       -0.21903943631980
C           -5.73356391129253        1.38956773483156       -0.55203572387311
C           -6.89013782320145        0.63884694311345       -0.31032248166069
C            4.42966384748718        0.87327582000273       -2.17667727011649
C            3.30519814716073        1.00159080814546       -1.36119082662044
C            2.19371163123146        0.15691206295069       -1.53304611084236
C            2.22985605484486       -0.80375902425956       -2.55856904405376
C            3.35959300276291       -0.93892246818242       -3.37137753133864
C            4.46393518916532       -0.10211575132913       -3.18162196269446
H            5.05146539330710       -1.56371127393796        2.03027989040272
H            5.00314730018110       -0.36975450545516        4.21830399575503
H            3.09771224329313        1.14992260312371        4.74992817435946
H            1.27921964722175        1.48324430519553        3.09741278134661
H            3.24847734878693       -1.21812812580889        0.38053822831159
H            0.10395697510354        0.71907987958687        1.17085571095411
H           -0.20795687881408        0.82090812144410       -2.41222273931967
H           -2.35461142254217        0.22513908618808       -1.65876471232682
H           -0.97966050744661       -1.24864248886953        0.66839395781342
H           -3.10858765376215       -1.73436946740090        1.52259739196452
H           -7.67369302727073       -1.20880463235171        0.49332895470698
H           -5.44433382740330       -2.11093641759472        1.09142816095733
H           -3.59278038123483        1.49311349293965       -0.36944846496293
H           -5.81213005782706        2.38351023356218       -0.98915562286012
H           -7.86816634917245        1.03956036516902       -0.56935498676304
H            5.28030537847324        1.53682169138709       -2.03187753243419
H            3.27859698950178        1.75399456489741       -0.57693948786486
H            1.36935207293581       -1.45414547916867       -2.70459824627928
H            3.37617544549266       -1.69618890895171       -4.15315962243910
H            5.34236578172723       -0.20295381064761       -3.81621663690526
