4

C            0.64692466441165        0.11936745122011        0.00000000000000
H            1.42365232927092       -0.64969616337743        0.00000000000000
N           -0.57103326293737       -0.10576791652290        0.00000000000000
H           -1.19736057226518        0.69705901338723        0.00000000000000
