12

C           -1.20458780526857        0.69546650304180        0.00000000000000
C           -1.20458780526857       -0.69546660304180        0.00000000000000
C           -0.00000000000000       -1.39096310608374        0.00000000000000
C            1.20458790526858       -0.69546650304180        0.00000000000000
C            1.20458800526857        0.69546650304180        0.00000000000000
C           -0.00000000000000        1.39096310608374        0.00000000000000
Cl          -2.68272111173357       -1.54888740677446        0.00000000000000
Cl          -0.00000000000000       -3.09765171354838        0.00000000000000
Cl           2.68272111173357       -1.54888760677446        0.00000000000000
Cl           2.68272121173357        1.54888750677446        0.00000000000000
Cl          -0.00000030000000        3.09765171354838        0.00000000000000
Cl          -2.68272101173357        1.54888750677446        0.00000000000000
