38

C            1.61909736577336        0.49060615298381       -0.65945079539595
C            2.34122272918627        1.63641808943160       -0.23229437524531
C            1.47341216878883        2.29798227386798        0.87229444688277
C            0.31216700193924        1.48857389639713        0.98987526630423
C            0.45499256534764        0.46185579297682        0.07974442679270
C           -2.34061989146723       -1.63982366642493        0.23153149614847
C           -1.61856056635513       -0.49393312582603        0.65858944174193
C           -0.45447364693822       -0.46514881061450       -0.08064041320927
C           -0.31161784749860       -1.49190792192903       -0.99073289342953
C           -1.47282829222088       -2.30134750085808       -0.87310150934652
C            1.88219886872347       -0.49653235454846       -1.62825491687097
C            0.83535680688529       -1.58072905115516       -1.80257194367191
C           -0.83480760466475        1.57739396157717        1.80170014851171
C           -1.88161214009473        0.49318529281121        1.62743816203082
C           -1.47096119195475       -3.38691887316229       -1.73414856769308
C           -0.35049530369615       -3.55472412737292       -2.59270143682218
C            0.76696472920068       -2.71261118093871       -2.64677897214664
C            3.11931287861933       -0.25543585435447       -2.26856004241696
C            3.88727446590738        0.85703353891351       -1.90250794541515
C            3.53926043221954        1.80991381667491       -0.90633685566348
C           -3.53855567334069       -1.81342539027558        0.90572431546451
C           -3.88651556217998       -0.86056420236579        1.90192776189637
C           -3.11860441532305        0.25195727734778        2.26791320440804
C           -0.76640420846669        2.70925647980244        2.64594244287571
C            0.35108327297911        3.55132854425892        2.59190906820149
C            1.47158140029770        3.38350668469439        1.73338778520353
H           -2.27803067373896       -4.10600125692982       -1.78340347148338
H           -0.36258815401792       -4.40794221496636       -3.25795975763911
H            1.56108621731324       -2.95343182632206       -3.34147160205809
H            3.49438725326737       -0.90953932187418       -3.04485620567338
H            4.82501959699970        1.00865848333422       -2.42121380735485
H            4.21598409739350        2.63095098891664       -0.70876092230073
H           -4.21522940565721       -2.63452925687324        0.70825189145242
H           -4.82419492572422       -1.01225255131703        2.42073596734917
H           -3.49364058615072        0.90599981701299        3.04427847000033
H           -1.56054288775921        2.95010203595205        3.34060510661403
H            0.36319383322130        4.40453347030747        3.25718445700761
H            2.27868729323864        4.10254189056335        1.78271257488940
