16

Mg           1.42063370165449       -0.77494229637151        0.88825651057639
B           -0.09553328256965       -2.10053721558526       -0.42684185719329
H           -0.31213219110781       -3.16823072873352       -0.90882642518234
C            0.57002457080718       -0.93295619429445       -1.17980413518753
Si           0.12923147961077        0.93604943439345       -2.25660865471181
B           -0.87097245099968       -0.47936129415171       -1.29683217808329
F            0.37613346225762        0.46821243045040        1.92894119218635
F            3.05856009768473       -1.20998634534887        1.41462578423004
H           -1.85218532539208       -0.69995819966241       -0.66112212299928
H           -0.27851948884404       -1.99548221173222        0.77827008068987
F           -0.14571840347022        2.20793759563277       -1.10490233495478
H           -0.83014419637740        2.29503957880884        0.28042625339537
H           -0.94898866467274        3.01370363678737        1.70572361969937
O           -1.09744624631065        2.17164053550382        1.24532462047645
H           -0.33873656299435        1.28389062916006        1.65437771865373
H            1.21579350072379       -1.01501935485679       -2.06100807159524
