18

O           -2.34583420094589       -0.59589802878832       -1.09867030051205
H           -1.42593094546798       -0.76591909788082       -0.84022674848777
C           -3.15923012111328       -1.12019845576104       -0.07171859321649
H           -4.19454786663736       -0.91773466695310       -0.33486164263582
H           -3.04480012557970       -2.20085356413563        0.04227268847957
H           -2.96168787404561       -0.65452207200635        0.89838099005948
C           -0.16356647692408        1.52419652131730        0.36603674244950
H            0.34282711605872        2.48564553624528        0.33116638841169
H           -0.57411057106144        1.37806065675890        1.36391331166862
H           -0.99321421982910        1.51468324806263       -0.33546874066185
C            0.75206384085413        0.36925778465863        0.05012055320810
O            0.32786907815485       -0.75065292908306       -0.23496096468021
N            2.07820066213735        0.63098204382838        0.10931991312724
H            2.37621308979170        1.54141011199385        0.40700708095056
C            3.06060662605600       -0.40912918943024       -0.11342389218717
H            2.70404946350138       -1.06006646492939       -0.90560079522949
H            4.00097579746539        0.04439461427552       -0.41193757131266
H            3.22011672758489       -1.01365604817251        0.77865158056876
