9

O           -1.58681181839594        0.13464402288821       -0.26794829623948
C           -0.40939771544224        0.04430727248693        0.53575901815431
C            0.87327780736397        0.09158599439564       -0.28189170003874
H           -1.59216127649993       -0.60746754902878       -0.88313989739133
H           -0.45964275730681        0.89760760076996        1.21397314555339
H           -0.43189566231146       -0.86408400978951        1.15240131211466
H            0.91394341938652        1.00150138897960       -0.88388758595931
H            1.74978319540961        0.06906035325506        0.37154813266257
H            0.94290480779626       -0.76715507395712       -0.95681412885608
