16

C            1.86255000814634        0.11736300051332       -0.34763400152047
H            2.88610901262314        0.43830000191702       -0.13212800057789
O            1.69160400739867       -1.25574800549234        0.00648200002835
C            0.87288600381779        1.05304900460578        0.33738500147564
H            0.92991600406723        0.89839600392937        1.42029000621200
H            1.20747900528122        2.07829200908994        0.15783200069032
C           -0.57662600252202        0.92463800404414       -0.13523000059147
H           -0.62913700275169        1.09637800479529       -1.21280300530451
H           -1.17762600515065        1.70447400745495        0.33679100147304
H            1.88399500824014       -1.33376300583355        0.94491700413284
H            1.72627500755031        0.15576300068127       -1.42854800624812
C           -1.23662800540871       -0.40754500178250        0.17992400078695
H           -0.77981400341072       -1.21249400530315       -0.39508700172801
H           -1.10844600484807       -0.64019000280004        1.24345600543857
O           -2.62227601146920       -0.26624200116448       -0.14050300061453
H           -3.02646401323702       -1.13426600496101       -0.06922200030276
