6

F            0.00000000000000        0.00000000000000       -1.88993612361898
C            0.00000000000000        0.00000000000000       -0.48156272742933
H           -0.51235995914195        0.88743348099777       -0.12780247016756
H           -0.51235995914195       -0.88743348099777       -0.12780247016756
H            1.02471991828390        0.00000000000000       -0.12780247016756
Cl           0.00000000000000        0.00000000000000        2.75490626155099
