16

C           -0.99598922310621        1.65459105098677       -1.01513807943997
C           -1.22438122410515        0.30127254506769       -0.39625037673310
O           -1.94341002725000       -0.53690785859831       -0.90084957894010
C           -0.46455402078185        0.01532474381703        0.89226472890255
C            0.93182378532557       -0.46237675827232        0.53985152736118
N            1.98481448993110        0.25632354487110        0.62619572773883
C            1.03229268576499       -1.86845826442218        0.03370232514740
H           -1.41715692494830        2.42240435434501       -0.36638257660247
H           -1.46586352516133        1.70301065119855       -1.99116558370888
H            0.07187758156438        1.85154895184822       -1.10111207981600
H           -1.00275652313581       -0.76111145957892        1.43197813126312
H           -0.40021262050043        0.91630624775770        1.50069153156366
H            1.75454718892396        1.17846174890431        0.99594572935603
H            0.77044488461974       -2.56437226746594        0.83065942863310
H            2.04341529018740       -2.06953676530165       -0.30309887632568
H            0.32510818267195       -2.03648046515707       -0.77729197839968
