42

C            0.29912470702334        1.23719711644718       -0.81404407576459
C           -0.28331132730616       -0.06441532263240       -1.41453380168988
C            0.00795465638724       -1.42104197652482       -0.74800774402384
C            0.08755389256212       -1.21568944312687        0.83348330305358
C           -0.17912151108618        0.21718501593675        1.44615357891740
C           -0.31952574379579        1.53772247733428        0.55665450868692
C           -0.06855125158005        1.92162776802134       -2.17123522452036
C            0.02111738664360        0.49892017985154       -2.83524563918086
C           -1.80192793685772       -0.46377049669820       -1.32923949876599
C           -1.32606401498308       -1.94332460434352       -1.31233075555699
C            1.36584859046610       -2.15432217613649       -0.72442800765259
C            1.48332565273183       -1.89816707184006        0.80798770420207
C           -1.00663841141467       -1.78073678270480        1.77854151776802
C           -1.42423258686907       -0.34130708540334        2.18303778333248
C            0.87457677077116        0.95056154767258        2.31772608074915
C            0.50680223660906        2.30056753210419        1.63888905339678
O           -1.63359992773179        2.05408652113619        0.34340558736025
C            1.83955966217703        1.18016316694464       -0.71966080341494
H            0.61527930762385        2.69932839412383       -2.53549740465809
H           -1.09667652229129        2.29570906665740       -2.17030201064569
H           -0.71322758507486        0.26043108310066       -3.61347054849118
H            1.02532091458087        0.27540007239119       -3.21183473726240
H           -2.43580700100725       -0.13134410234611       -2.15941901016218
H           -2.26779902331070       -0.17504790164676       -0.38771117303981
H           -1.89617403903396       -2.67374180376950       -0.72498939855861
H           -1.18888764623165       -2.33307877520270       -2.33019650676514
H            2.14370751362614       -1.68447794828089       -1.33831064900899
H            1.29716162098441       -3.21523898996136       -0.99628471336503
H            1.52104373010229       -2.80730270844165        1.42213609647569
H            2.31940522652325       -1.25570551248790        1.10832603530218
H           -0.56025258004095       -2.34154208383187        2.60969134520172
H           -1.78665671727249       -2.40080930022213        1.32257080911975
H           -2.37119572668954       -0.02612084836243        1.72781948822562
H           -1.46261747120422       -0.13161205599723        3.26010078940013
H            1.90365412085989        0.63340053238689        2.12095938991180
H            0.69658720312129        0.89185675014536        3.39901422336475
H           -0.16212043669460        2.90923177021032        2.26099404289194
H            1.33095208611956        2.93536297062636        1.29543667712036
H           -2.05552650017775        2.12517044693339        1.21078252460647
H            2.18809036289771        0.52521280760084        0.07863842708989
H            2.28259664836949        0.82190029045912       -1.65290914514079
H            2.23025167047352        2.18776147987697       -0.53269811850889
