6

Br          -0.94475793277113       -1.65425188246677        0.00000000000000
Br           0.00000000000000        0.43183096924371        0.00000000000000
O            1.40670489991449        2.80309180096875        0.00000000000000
C            2.58554481643808        2.57241581712079        0.00000000000000
H            2.97159978889952        1.53896489079026        0.00000000000000
H            3.32803576352271        3.38654175947607        0.00000000000000
