21

N            1.36043250284285        1.63153607797570       -0.20995848653767
C            1.55456515197904        0.35839303578694        0.47019483962454
C            1.73957483128016       -0.74810435451265       -0.56934854542039
O            2.31552474599968       -1.86759350620321       -0.15302842696402
H            1.47406714006316        2.40027352555527        0.44039021073902
O            1.32898193723780       -0.64956082833749       -1.68452980362307
H           -0.41440098713349        1.41624589696104       -0.87230236918700
H            2.41389624179736        0.37507573244055        1.15751073479838
C            0.29088759381679        0.04233212831022        1.30100239196226
C           -0.91510600488937       -0.11359110403885        0.43643635483853
H            0.13503720360209        0.85202725569486        2.02172047496405
H            0.42682754246426       -0.86563950029592        1.89190843338885
C           -1.93410456927504       -1.00909843838077        0.43929535208051
N           -1.14673612983081        0.72644515739569       -0.62305928347520
H           -2.14326698265422       -1.84034794255218        1.09188011150579
H           -3.58618412680928       -1.17025645399297       -0.88803605723930
C           -2.23902053057018        0.36361223524266       -1.25991229690055
N           -2.74166572097646       -0.68392882793347       -0.62188331531455
H           -2.64907714570858        0.82623690659049       -2.14306876336502
H            2.03440083711832        1.76517013271745       -0.95499148405892
H            2.69536646964590       -1.80922712842334        0.72977992818373
