16

C           -1.35901000594398       -0.17716800077489       -0.45405500198593
H           -0.83731600366222       -1.11727000488667       -0.61447800268758
O           -2.57482101126164       -0.51352200224602        0.20763300090813
C           -0.49895100218229        0.78903800345106        0.35586400155646
H           -1.04890000458763        1.72815100755851        0.45979200201102
H           -0.37647400164661        0.39141600171196        1.36748700598106
C            0.87083100380880        1.05514300461494       -0.28590200125047
H            1.20037600525015        2.07070600905677       -0.05378000023522
H            0.78857200344902        0.99118100433518       -1.37382600600878
H           -3.08056301347364        0.29714500129964        0.31083000135949
H           -1.55623400680659        0.25444700111289       -1.44120600630349
C            1.96633000860025        0.10542100046109        0.18796900082213
H            2.89630001266771        0.32678600142928       -0.33409000146123
H            2.14336700937457        0.25555100111772        1.25771800550096
O            1.68951700738953       -1.26806500554621       -0.08161100035695
H            1.07810900471539       -1.58001100691059        0.59012200258105
