17

C            0.15291592595969        0.34302792135005        1.12850432181350
C            1.06338218559569        0.88468307581286        0.00000000000000
H            1.13871720707884        1.97663438720261        0.00000000000000
C            0.15291592595969        0.34302792135005       -1.12850432181350
H            2.06887147232921        0.44485195038702        0.00000000000000
C           -1.19439045824919        0.88508707592807       -0.67029819114770
H            0.44191400837275        0.57039098618676       -2.15774861532120
H            1.05365818282271       -1.66865265231720        1.17774933585662
H           -2.02940869636980        1.10525513871299       -1.32872637891046
C           -1.19439045824919        0.88508707592807        0.67029819114770
H            1.05365818282271       -1.66865265231720       -1.17774933585662
C            0.15291592595969       -1.18640951479681       -0.78053422258351
H           -0.71309032099772       -1.70178366176511        1.20660934408657
H            0.44191400837275        0.57039098618676        2.15774861532120
H           -2.02940869636980        1.10525513871299        1.32872637891046
H           -0.71309032099772       -1.70178366176511       -1.20660934408657
C            0.15291592595969       -1.18640951479681        0.78053422258351
