12

C            1.69222612741955        0.83854553001339        0.13264308029486
H            1.27221145933667        1.84011764373974        0.19493563976490
H            2.26745685256938        0.75258376873826       -0.78746378140672
H            2.37173723237287        0.67789334605685        0.96477080479031
C            0.64677233056483       -0.25157902674679        0.15001715983594
O            0.93885652615738       -1.42641297653193        0.33309963961564
N           -0.62999348145707        0.17095501117385       -0.06426667511995
H           -0.78463618877461        1.14809363985788       -0.23206941799821
C           -1.73981895863897       -0.75130066931533       -0.15802809307971
H           -1.34932060367327       -1.74072765486624        0.05900265315204
H           -2.51455626365139       -0.50531206284815        0.56547976035308
H           -2.17093503222537       -0.75285654927153       -1.15812077020221
