8

H           -0.30206197848625        1.40558490005185        0.00000000000000
H            1.40558490005185        0.30206197848625        0.00000000000000
H            0.30206197848625       -1.40558490005185        0.00000000000000
H           -1.40558490005185       -0.30206197848625        0.00000000000000
F            1.24954091137110        1.24954091137110        0.00000000000000
F           -1.24954091137110        1.24954091137110        0.00000000000000
F            1.24954091137110       -1.24954091137110        0.00000000000000
F           -1.24954091137110       -1.24954091137110        0.00000000000000
