20

C           -2.35822456201958       -1.10379463481194       -1.91036760825863
H           -2.01899358767468       -2.15013742355713       -1.94863233289672
H           -2.01866830667656       -0.61308962585925       -2.83522426755419
H           -3.45759396313705       -1.10972676611602       -1.92068088643481
C           -1.81066975208233       -0.38961845122816       -0.67201909457122
H           -2.19543271224199        0.64426759529746       -0.64250530361846
H           -2.19567416040427       -0.88131936989256        0.23762017754567
C           -0.27940807495375       -0.35827535202012       -0.61672252781555
H            0.10671123201543        0.13309923528232       -1.52752009063471
H            0.10650258828931       -1.39302598520658       -0.64607246280210
C            0.27941320265975        0.35519658411603        0.61849637279040
H           -0.10630405387995       -0.13607192262934        1.52951345403321
H           -0.10689567431925        1.38981349866638        0.64764920572330
C            1.81068368619673        0.38732111841181        0.67334487980398
H            2.19519568485788        0.87512442339345       -0.23860819363206
H            2.19595039173388       -0.64648286839204        0.64836675636852
C            2.35821276568586        1.10754397016149        1.90820036600239
H            2.01875235603055        0.62150534698032        2.83555791134615
H            3.45758271132668        1.11365236028723        1.91844194029606
H            2.01886022859332        2.15401826711666        1.94116170430876
