10

P            0.00000000000000        0.00000000000000       -1.39500735783018
C           -1.29579660328459        0.00000000000000       -0.28077352770987
C           -0.70690005406698        0.00000000000000        0.97552609609350
C            0.70690005406698        0.00000000000000        0.97552609609350
C            1.29579660328459        0.00000000000000       -0.28077352770987
H            0.00000000000000        0.00000000000000       -2.77664101023679
H           -2.35290572399876        0.00000000000000       -0.49559466612919
H           -1.29178380639854        0.00000000000000        1.88666628177905
H            1.29178380639854        0.00000000000000        1.88666628177905
H            2.35290572399876        0.00000000000000       -0.49559466612919
