15

C           -0.48955176353763        0.00881212467448       -1.58593884310396
C            0.84103202116568       -0.00851544749389       -1.29526667105835
C            1.54177362315052       -0.02289506082951        0.00000000000000
C            0.84103202116568       -0.00851544749389        1.29526667105835
C           -0.48955176353763        0.00881212467448        1.58593884310396
C           -1.58077732246948        0.01895026190155        0.69192650432208
C           -1.58077732246948        0.01895026190155       -0.69192650432208
H           -0.74900679319219        0.01516733091758       -2.63929542329262
H            1.51433437414711       -0.01438343757784       -2.14866719584862
H            2.27237287333502        0.80821504825961        0.00000000000000
H            2.23653013014871       -0.88474444972057        0.00000000000000
H            1.51433437414711       -0.01438343757784        2.14866719584862
H           -0.74900679319219        0.01516733091758        2.63929542329262
H           -2.56136882943063        0.02968139872336        1.15759298484147
H           -2.56136882943063        0.02968139872336       -1.15759298484147
