15

C            1.58661948368967        1.86946634620220       -0.60215380816702
C            1.07129553943808        0.54291622005397       -0.16581044402778
C           -0.25123498986490        0.22527528408434       -0.07965453999559
C           -0.66917719723785       -1.08751002773722        0.35334457453145
C           -2.14448605895861       -1.37054469578194        0.42674248817465
O            2.02712232331298       -0.32441012369155        0.13914482106292
O            0.15162399033564       -1.96766672525135        0.66054563111464
H            2.20051033528141        2.29876757474971        0.18730691038375
H            0.77379318757245        2.54803927742748       -0.83824206388901
H            2.22000174823594        1.74322933158420       -1.47816436946013
H           -2.60073979623880       -1.21814492931365       -0.55013796465952
H           -2.61946203103892       -0.67810277581885        1.12014810016623
H           -2.30854891744816       -2.39077729353879        0.75545986457318
H           -0.98945352158306        0.96629027575344       -0.33894536622729
H            1.55213590450412       -1.15682773872200        0.41041616641948
