36

C            2.76239298279681       -0.48646628682443       -2.03128118960893
C            3.35193271663372       -0.36858955296090       -0.81204730721297
C            2.56190304184923       -0.26472825910721        0.36158437894687
C            1.14852178586403       -0.30263387541740        0.27342888248740
C            0.55904824951365       -0.73542051733476       -0.96978746293781
C            1.36303943137490       -0.69226384850652       -2.13567446603594
C            0.77952660865844       -0.89017191743505       -3.42167513329653
C           -0.53470542885336       -1.18808549390555       -3.55883478559000
C           -1.33436496958571       -1.45023544211853       -2.41029860850481
C           -0.77332511655790       -1.29853298330238       -1.10982501856936
C            3.19773174152868       -0.09608336873150        1.62750338290241
C            2.47518651895619        0.09584599743197        2.75820053174972
C            1.06605442774649        0.29204280076631        2.68270928951102
C            0.40516001404699        0.17366361211127        1.42701110142996
C            0.33646817930737        0.69385258170953        3.82230020501781
C           -0.98262476626189        1.06083894850338        3.72479013591886
C           -1.60205397730498        1.07486179496933        2.46501668326369
C           -0.92320679105111        0.64903725093074        1.34849764799345
C           -1.50751739563973       -1.83097791160635       -0.02620081993516
C           -2.77135398887751       -2.34347387713181       -0.19464953618530
C           -3.36888375665958       -2.36605155116730       -1.46470608160221
C           -2.64825402977886       -1.94585944544976       -2.55436511014861
H            3.35429941110013       -0.48070744266754       -2.93755893082516
H            4.42812770398181       -0.29903853735536       -0.72022819261955
H            1.41536126179167       -0.78615918035169       -4.29124475842735
H           -0.97694227156052       -1.30686341430823       -4.53943594645672
H            4.27876863595151       -0.14001033957863        1.66427833659293
H            2.96268083222652        0.18397795661905        3.72081349352849
H            0.84971244967830        0.74219275413043        4.77424863969994
H           -1.52952176632887        1.37762255524007        4.60279474119424
H           -2.61742062241557        1.43538554458642        2.36747115082449
H           -1.41537489747250        0.68971365753461        0.39047625200003
H           -1.06619896497394       -1.84735069694292        0.95647041870129
H           -3.30231667990720       -2.74475770760335        0.65834365962613
H           -4.37101867769615       -2.75480187709519       -1.58721571911392
H           -3.06483188112045       -2.02277201586258       -3.55090985858881
