6

C           -0.59511851233251        0.05553193588890        0.07183341626321
H           -0.94614292341390       -0.87691217706631       -0.34995997994127
H           -0.79484057527209        0.94824648220383       -0.50588522019755
H           -0.66963724717208        0.15353608452562        1.14674261793813
H            0.78547625534792       -0.07316126299930       -0.09468484048323
Cl           2.22026300284266       -0.20724106255273       -0.26804599357931
