33

N           -2.38280658840694       -2.50179633750056       -0.30911246271718
C           -1.11547367820492       -2.93733830640112        0.00676451449289
C           -0.32366273454210       -1.86760838275621        0.36404848924643
C           -1.15935267522977       -0.69873946560365        0.26710649611142
C           -0.94970269006085        0.67186043734272        0.52019847794348
C           -2.00794761505053        1.54967037466005        0.33716749133981
C           -3.27603852503957        1.09359040742506       -0.08507447886117
C           -3.51191650819945       -0.25024349734781       -0.32691746184464
C           -2.44251258417533       -1.13585043435100       -0.15115747436671
H           -3.15203253393488       -3.09310129563276       -0.56527944463750
H           -0.86853269563597       -3.98627723208705       -0.03495948242536
H            0.00695624185877        1.04760041032035        0.85665645442814
H           -4.06382946924267        1.82446735515071       -0.20461747033321
H           -4.48814143887322       -0.59511747273983       -0.64299143903007
O           -1.88214862391485        2.89604427924426        0.60449447243950
C           -0.95560168984435        3.56521623147834       -0.25752146668352
H           -1.29394266564496        3.50552023610088       -1.29507039266549
H            0.04694323892438        3.14618626164128       -0.18397047154769
H           -0.94368669078356        4.60478915763163        0.05938651071997
C            1.12394116284777       -1.94226837721882        0.74596646222516
C            2.07088809536129       -1.58865040247964       -0.41297345529325
N            1.93170610513886       -0.21854649944976       -0.87346142265666
C            2.57955705933250        0.87084742286451       -0.36084045902651
C            3.80510397209752        0.60483944189268        0.49118648023349
H            1.35769814606602       -2.95676730540878        1.07997343856772
H            1.32667914800260       -1.27348542474001        1.58679940266998
H            1.86753510997714       -2.25240235502881       -1.25478139575315
H            3.10493402219764       -1.75365339044575       -0.11518747685522
H            1.07207816655264        0.01808648359154       -1.34755638929101
O            2.20183708621027        2.01093134186771       -0.60488844195452
H            4.54432491993756        0.01862448377408       -0.05422048089799
H            3.54440499059884        0.05916848060081        1.39832141564340
H            4.23274194168019        1.56440337360486        0.76251146077953
