12

C           -1.45262741451946       -1.21534900709070        0.00000000000000
H           -0.80217915811213       -2.08629603335497        0.00000000000000
H           -2.10011463614720       -1.24309988022156       -0.87298917367128
H           -2.10011463614720       -1.24309988022156        0.87298917367128
C           -0.69732448130096        0.08908808680082        0.00000000000000
O           -1.27446157472808        1.17550060629380        0.00000000000000
N            0.65431023971661       -0.01567383710339        0.00000000000000
H            1.05556616766330       -0.93524005681584        0.00000000000000
C            1.52322654532963        1.14097740313919        0.00000000000000
H            0.88619928037632        2.01928928209588        0.00000000000000
H            2.15479912434530        1.15636904601498        0.88615717218625
H            2.15479912434530        1.15636904601498       -0.88615717218625
