16

H            0.92498178698587       -1.30463418675931       -0.00586563777567
B            0.25942090150465        1.58904247621720       -2.24459250554255
C            0.91376236479219        0.25031814972209        1.50591134165736
Si          -0.93371874805426        0.19409146748094        2.04544274065579
N           -1.44444198044391       -1.23622676126127        1.19029043354707
H            2.42458346180762       -0.39348537447109        0.09135448537846
H            1.22775956929901        1.29763770589946        1.62293398629926
H           -2.52291026475884       -2.84362659809388        0.40470201373568
H           -1.07033394931456        1.62655057806992       -2.35842453862924
C            1.33393503420044       -0.29234719036791        0.11663719916310
Al          -2.40497463401333        0.08719353157365       -0.20824778646755
C           -2.24252170501142       -1.78797941476171        0.36410310886338
B           -0.83280034273104        0.79572004983745       -1.36641262579916
B            0.80720714564800        0.61807019619009       -1.07610736371182
Si           2.10834950627536        1.69844085318926       -2.37842389629822
H            1.45170185381421       -0.29876548246485        2.29669904492409
