16

C            1.57838500690347        0.14769000064596        0.34380900150374
H            1.39475000610030        0.01296800005672        1.41354500618250
O            1.35992900594800       -1.08620300475079       -0.35978200157360
C            0.65384500285976        1.21509900531455       -0.22132200096801
H            1.05782700462668        2.18028300953603        0.09392400041080
H            0.72969300319150        1.18486400518230       -1.31143800573591
C           -0.81733400357482        1.15212700503912        0.20815600091042
H           -1.30352500570130        2.06573800903503       -0.14582800063782
H           -0.88376500386537        1.15976200507252        1.29926000568265
H            1.98412000867806       -1.73444600758604       -0.02138500009353
H            2.61628601144300        0.45894800200733        0.20654400090337
C           -1.62772500711927       -0.03405200014893       -0.31130100136155
H           -2.68422901174017        0.15101500066051       -0.11856600051858
H           -1.50186800656881       -0.11814600051674       -1.39750600611235
O           -1.32426200579200       -1.26015400551160        0.33337700145811
H           -0.41765100182670       -1.47531400645267        0.07663700033519
