33

N            1.40435424009878       -0.96618079738173        0.08577436511548
C            1.39901269164534        0.02582211879522       -0.96746924148621
C            1.48460996101373        1.46630333221796       -0.45784675352694
O            1.33115673575241        2.40885527652096       -1.22885498156324
C            0.15750851570283       -0.13006106657511       -1.85943469050063
C           -1.10243290677210       -0.09733210560761       -1.04241818519091
C           -1.71835045689332       -1.28282602537701       -0.62355143843469
C           -1.65441763456022        1.11596983358675       -0.61613565285133
C           -2.84387486320379       -1.26914142109206        0.19616137019966
C           -2.78044521911219        1.14061706763272        0.20120540583326
C           -3.37565422422387       -0.05170748237565        0.61439151098882
O           -4.48031971812979       -0.08877497631225        1.41737995679126
H            0.50953313282873       -1.20229188799344        0.48923697133536
H            2.30192496380587       -0.14391354043972       -1.55594358708765
H            0.17432258985653        0.68240613051120       -2.58363075911417
H            0.23292224719585       -1.07664900205038       -2.39515043358091
H           -1.32414085204478       -2.23380989865940       -0.96294004499708
H           -1.19935164745921        2.04550397020902       -0.93295821335570
H           -3.32329264538555       -2.18634887807322        0.50850413652794
H           -3.19966419541545        2.08953355149903        0.51509679612274
H           -4.74691781906860        0.81746041550678        1.60374213124423
N            1.74020235984012        1.59837175708075        0.86081441354095
H            1.88456123611366        0.74964414441233        1.38042621625970
C            1.92336172778832        2.88959084001379        1.48352777408985
H            1.64908363539443        3.64337621941763        0.75187418920554
H            1.28603476636832        2.98700220889911        2.35990366178839
H            2.96045696091870        3.04451050885926        1.77762374071875
C            2.43467539500989       -1.86100079893669        0.23132875069769
O            3.49136476287695       -1.75690798979262       -0.37218645239925
C            2.16844009104834       -2.97846257358314        1.21185921177103
H            2.14328624250535       -3.91806339379816        0.66366241591802
H            1.23488842469838       -2.85779796071380        1.75653908639240
H            2.99597251562220       -3.03062957826784        1.91446234890156
