4

B            0.00000000000000        0.00000000000000        0.00000000000000
H            0.00015394982173       -1.18989990544351        0.00000000052918
H           -1.03056089325704        0.59481662837559        0.00000000000000
H            1.03040694343531        0.59508327706792       -0.00000000052918
