4

O            0.00000000000000        0.00000000000000       -1.19320278925639
C            0.00000000000000        0.00000000000000        0.00684057698148
H           -0.93838032110591        0.00000000000000        0.59318110613746
H            0.93838032110591        0.00000000000000        0.59318110613746
