8

C           -0.76309470521271        0.00000033073576       -0.00000092606012
C            0.76309470521271        0.00000033073576       -0.00000092606012
H            1.15831070517673       -0.44364173415256       -0.91409634840443
H           -1.15831070517673       -1.01332640219736       -0.07464084248099
H            1.15831070517673       -0.56981239819409        0.84125325320319
H            1.15831070517673        1.01345406619950        0.07284719632463
H           -1.15831070517673        0.44202046747265        0.91488297032844
H           -1.15831070517673        0.57130533940036       -0.84024437685060
