60

C           -3.73462641633435        0.25941580113462        0.97589050426831
C           -2.99922671311789        0.41784640182756        2.15056890940606
C           -2.47767731083676       -0.92810370405930        2.48306091086030
C           -3.62882701587161       -1.13450800496206        0.50561020221142
C           -2.75967421207014       -1.83322020801806        1.36399140596576
C           -3.47181621518488       -1.12449770491828       -0.89660200392152
C           -3.60080191574903        1.11649820488329       -0.16060650070245
C           -3.49681761529423        0.27061220118359       -1.35141790591077
C           -2.76720261210307        2.23739820978584       -0.03483340015235
C           -2.12969900931478        1.56960090686506        2.30863881009742
C           -2.01947360883269        2.46448481077906        1.19882530524337
C           -0.97270570425438        1.41611440619374        3.12535011366952
C           -1.32637000580122       -1.06695580466661        3.20993511403948
C           -0.68819040300998        0.11173110048869        3.73578971633944
C           -0.27889980121984       -2.00569350877242        2.77314111212905
C           -1.72141850752906       -2.67134931168383        0.83234290364046
C           -0.43972320192324       -2.76196081208015        1.56714050685429
C           -2.54507721113155       -2.02675600886454       -1.44904850633778
C           -1.71078320748255       -2.82977861237676       -0.58884350257546
C           -1.76606860772435       -1.64221120718263       -2.61599001144170
C           -2.66970931167666        0.65525680286593       -2.40276981050913
C           -1.82820490799612       -0.32425690141822       -3.08715781350248
C           -1.95367390854489        2.65941561163164       -1.14956470502791
C           -1.92338910841244        1.90088210831400       -2.33210461020006
C           -0.75040180328208        3.04830601333255        0.84432740369288
C           -0.72533050317242        3.19900711399168       -0.60871500266237
C            0.27889980121984        2.00569350877242        2.77314111212905
C            0.43972320192324        2.76196081208015        1.56714050685429
C            0.68819040300998       -0.11173110048869        3.73578971633944
C            0.97270570425438       -1.41611440619374        3.12535011366952
C            1.32637000580122        1.06695580466661        3.20993511403948
C            2.12969900931478       -1.56960090686506        2.30863881009742
C            0.75040180328208       -3.04830601333255        0.84432740369288
C            2.01947360883269       -2.46448481077906        1.19882530524337
C           -0.46412130202996       -3.06791501341832       -1.30407540570371
C           -0.49402020216072       -2.32823841018315       -2.55344371116814
C            0.72533050317242       -3.19900711399168       -0.60871500266237
C            0.67095580293460       -1.71604180750555       -3.03087491325631
C           -0.61058780267056        0.34260150149846       -3.50856531534561
C           -0.67095580293460        1.71604180750555       -3.03087491325631
C            0.61058780267056       -0.34260150149846       -3.50856531534561
C            0.46412130202996        3.06791501341832       -1.30407540570371
C            0.49402020216072        2.32823841018315       -2.55344371116814
C            1.72141850752906        2.67134931168383        0.83234290364046
C            1.71078320748255        2.82977861237676       -0.58884350257546
C            2.47767731083676        0.92810370405930        2.48306091086030
C            2.99922671311789       -0.41784640182756        2.15056890940606
C            2.75967421207014        1.83322020801806        1.36399140596576
C            3.73462641633435       -0.25941580113462        0.97589050426831
C            3.62882701587161        1.13450800496206        0.50561020221142
C            2.76720261210307       -2.23739820978584       -0.03483340015235
C            1.95367390854489       -2.65941561163164       -1.14956470502791
C            1.92338910841244       -1.90088210831400       -2.33210461020006
C            3.60080191574903       -1.11649820488329       -0.16060650070245
C            1.82820490799612        0.32425690141822       -3.08715781350248
C            1.76606860772435        1.64221120718263       -2.61599001144170
C            2.54507721113155        2.02675600886454       -1.44904850633778
C            3.47181621518488        1.12449770491828       -0.89660200392152
C            2.66970931167666       -0.65525680286593       -2.40276981050913
C            3.49681761529423       -0.27061220118359       -1.35141790591077
