28

C            0.02063558082466        1.50889304842892       -1.27016118976090
C           -1.23296994749848        0.95113439083360       -1.51363647354261
C           -1.33659612771251       -0.24866702286401       -2.21464238109616
C           -0.18723288209666       -0.88937437833994       -2.67502144739639
C            1.06649827175838       -0.32648604503794       -2.43746812824229
C            1.17070967147313        0.87371010952696       -1.73620976316563
C           -1.98035814351868        0.40288525048163        1.99512908230332
C           -0.77323224442600        1.05107678556046        2.20047255601239
C            0.41213849664709        0.42631645646014        1.77852002281028
C            1.79257222726469        0.78092484142236        1.81317458061181
C            2.48684631269895       -0.25404313168265        1.22910533237690
C            0.32783127827947       -0.84991770247509        1.15564915091442
C           -0.88675719454363       -1.50828144002471        0.95446763061486
C           -2.03757566663921       -0.86473592452322        1.38141834334501
H           -2.12339091182311        1.44248359861980       -1.14679424429510
H           -0.74344332910702        2.02141298326947        2.67938308953390
H           -2.30926449799259       -0.68458123932144       -2.39889675694500
H           -0.26863220235980       -1.81854555381144       -3.22349771751148
H            2.22872117496736        1.67685968748678        2.22136458308246
H            1.95829500972657       -0.81705356182023       -2.80562134505735
H            2.14174507937359        1.30970721683530       -1.54626872167999
H           -2.90005572742385        0.87241476650358        2.31767971454620
H           -0.93121047286553       -2.47845425317979        0.47717510884005
H            0.10178380378840        2.43359448931767       -0.71562221720360
H           -2.99728858803459       -1.34335387983578        1.24061403942376
H            1.84928445684195       -2.05966570286854        0.32707756719021
H            3.54459009262294       -0.37150334702655        1.06329726191620
N            1.60635647977452       -1.23675044193540        0.84931232237479
