9

O           -2.62305072305182        0.09830533926566       -0.26206110393055
H           -1.67164842820282        0.02002164911997       -0.42947819780364
H           -2.83693910038543        0.99642340420001       -0.51482546601288
C            0.40733019664373       -0.03406363401624       -0.54092158769819
Cl           1.32086328432687       -0.18954490242439       -1.96410690924323
C            1.24211529870017       -0.16966440926163        0.66125153167713
H            2.32876486238361       -0.18047423103097        0.55508287173955
H            0.92143087374324        0.57912868872457        1.39054258652605
H            0.91113373584242       -1.12013190457700        1.10451627474579
