17

C            0.64028495464814        0.02587699792203        0.49022896542009
C           -0.46433996681728        1.10300292187507        0.15907598888721
C           -0.48707296523451       -0.98267693016785        0.30203497880659
C           -1.41982489898578       -0.06734599545506        0.02349499825480
H           -0.27748598020008        1.67281488138125       -0.75313494662400
H           -0.67245195239878        1.80105987193441        0.97251293087199
C            1.78041087338821       -0.05561399592817       -0.46505696701236
H            1.50496489303244       -0.11328899209826       -1.51502289231200
C            3.06320078268626       -0.07292899495036       -0.12523399127349
H            3.37228776062986       -0.02290899852416        0.91203093535375
H            3.84786272691261       -0.13774898997720       -0.86675893858904
H           -0.49936596457306       -2.06285785342729        0.36854597389867
C           -2.86785879625204       -0.10451599278158       -0.29816797876633
H           -3.06428878267377        0.35336697487533       -1.27122790953769
H           -3.24562076964031       -1.12677791996323       -0.31778297721349
H           -3.44579575535470        0.46107296747829        0.43768696914540
H            1.01109692833599        0.10048199288039        1.51489989247780
