15

C           -0.84772777172764       -0.86694714399195       -0.39884310640590
H           -0.95398160522446       -0.69199799623309       -1.47114989552171
H           -1.49936530055068       -1.69621098100154       -0.12569246077799
C            0.62181330981812       -1.12401021555084       -0.05471325207020
H            1.11704405453144       -1.76159521863799       -0.78529747801315
H            0.68509248050959       -1.62422395323722        0.91275331527019
C            1.26195031022233        0.28138635826931        0.03623959753097
H            1.91221858031190        0.47405727775143       -0.81561326571043
H            1.87481745002155        0.37055577536347        0.93196489599980
C            0.08290427123744        1.28056330534107        0.06311163170481
H           -0.03424720860701        1.73953366601924       -0.91917363641722
H            0.22849785086541        2.08206807858128        0.78551018365063
C           -1.15086740637447        0.42346817716459        0.35876047558805
H           -2.08185585019109        0.89920558973837        0.05284735332749
H           -1.21629316484242        0.21414728042383        1.42929564184466
