43

H            2.25660606658360        2.82300602954912       -2.89291366710509
C            2.99353072611843        2.67140920381463       -2.10094578482765
H            3.22536354850056        3.65294167184491       -1.67468663038970
H            3.90754303959424        2.25273374407894       -2.52874634675425
C            2.37767932001388        1.80068046404527       -1.02076079484134
O            1.20464980630843        1.92851366000562       -0.67459915137494
N            3.20199234014154        0.84996046150476       -0.47897792394747
H            4.18221771453120        0.91525200793178       -0.71447816824313
C            2.88828806189906        0.16220310234721        0.78516756934713
H            3.63751826227235       -0.63361829918105        0.88239454557730
C            2.96332815747296        1.08502828652582        2.00241814393080
H            2.23379974590120        1.89136643529119        1.91031927429435
H            2.73367475884242        0.52632362120716        2.91107664879477
H            3.96601822420449        1.51317582307031        2.08996611654150
C            1.51458794039527       -0.54164190125994        0.70023257855197
O            0.69212974936392       -0.45848316203705        1.60475336848566
N            1.31301417420917       -1.27563863069532       -0.42691466477029
H            2.09682044258973       -1.40668037943007       -1.04867215687037
C            0.14103469890566       -2.13136140180577       -0.61946396609991
H            0.19924945530169       -2.49146245144156       -1.65299171626122
C            0.14446295229941       -3.34924846385941        0.29994322172682
H            0.14593017443487       -3.01760622277758        1.34487697973190
H           -0.77601206698380       -3.91635476092415        0.12398205959451
O            1.31454290684527       -4.10135895938715       -0.02905107744702
H            1.33571592788716       -4.87379778530071        0.54833350954923
C           -1.17991816060004       -1.33623539892966       -0.48549106510568
O           -2.15058783495216       -1.81726195360175        0.08320441885809
N           -1.20376237771328       -0.16078496668983       -1.17801643952355
H           -0.30756108487241        0.25044971376213       -1.40817924160015
C           -2.36171275818945        0.74454334237592       -1.16399417002387
H           -2.01955528807993        1.64846182122062       -1.68199837721904
C           -3.56109126202171        0.16194096012800       -1.91081974205403
H           -3.90286300639537       -0.74998293484706       -1.41981117212893
H           -4.38301199316044        0.87990262680735       -1.90550501370840
H           -3.28225844803083       -0.06440278430529       -2.94491902794526
C           -2.76215594365475        1.20000158301006        0.26623594681004
O           -3.93688241913588        1.27977053367231        0.60340046218551
N           -1.72073014636082        1.61747067745805        1.03906010263492
H           -0.78065033857555        1.39559553293984        0.73837703719117
C           -1.90242719733902        1.97954331437914        2.43177329938379
H           -1.44934391725685        1.23333649338638        3.09402676336200
H           -1.45499363276901        2.95755601205046        2.64246379723568
H           -2.97437073646265        2.02889574528695        2.62462784759151
