16

N            1.14302170499930       -1.17526111139031        0.03206120014023
C           -0.19709090086203       -1.12429931116742        0.07919480034638
C           -0.92111140402872        0.07225379406602        0.05868740025668
C           -0.20208340088386        1.26048059926304       -0.02277920009963
N            1.10744360484369        1.23047349913179       -0.06608360028903
C            1.71921600751943        0.01385839381061       -0.02981800013041
N           -2.24127590980280       -0.28361340749046        0.11713350051231
C           -2.25582000986641       -1.64934811346385        0.16920800074007
N           -1.06019570463704       -2.19428201584725        0.14792580064699
O           -0.84759650370718        2.44164000442914       -0.06023380026345
N            3.09233811352514        0.05968149401103       -0.01165530005098
H           -3.18200381391731       -2.19606721585506        0.22265710097385
H            3.50041291530996        0.89587649766834       -0.38822280169799
H            3.54205971549211       -0.80306940976243       -0.26179770114504
H           -3.03546011327637        0.33125149519881        0.12247750053569
H           -0.16185430070791        3.12042480739798       -0.10875490047566
