14

S           -1.07651409165542        1.55909331982656       -0.16473423934876
N            1.55759139141908        1.52879103305902       -0.00166525806637
N            0.55024178512333       -0.51665327909490        0.07584104815734
C            0.39480761911529        0.81542712046074       -0.01226111399306
H            2.35939051634145        1.14610345792987        0.46702007967446
H            1.43099378736132        2.51919924572007        0.08325351920320
H            1.47820874895389       -0.89064132462503       -0.01023745875222
C           -0.54350315653560       -1.45978337772527       -0.02538256643661
C           -0.00842595674692       -2.87304068104825        0.00782815794096
H           -1.23656353611130       -1.28244277297924        0.79375997283242
H           -1.09794538713963       -1.27089205275607       -0.94300408951336
H            0.49864844778009       -3.08551517590662        0.94698661746897
H           -0.82163457163518       -3.58324983243830       -0.10446311760958
H            0.69447442201091       -3.04922572609699       -0.80394155020590
