60

C           -0.56749850248210        3.99204571746024        0.68721840300573
C           -0.56749850248210        3.99204571746024       -0.68721840300573
C            0.83607140365678        3.86218421689225       -1.15559050505427
C            0.83607140365678        3.86218421689225        1.15559050505427
C            1.66335770727512        3.65231081597432        0.00000000000000
C            0.84117860367911        2.98926861307433        2.24399570981469
C           -1.37946630603345        3.07818601346324        1.41717780619839
C           -0.57131180249878        2.65697071162094        2.53941891110680
C           -2.20413490964035        2.11128400923424        0.73208950320198
C           -1.37946630603345        3.07818601346324       -1.41717780619839
C           -2.20413490964035        2.11128400923424       -0.73208950320198
C            0.84117860367911        2.98926861307433       -2.24399570981469
C           -0.57131180249878        2.65697071162094       -2.53941891110680
C            1.81679210794621        1.90934880835103       -2.30366381007567
C            2.53719331109706        2.53161711107268        0.00000000000000
C            2.61499061143733        1.67975580734684       -1.15751870506271
C            1.81679210794621        1.90934880835103        2.30366381007567
C            2.61499061143733        1.67975580734684        1.15751870506271
C            1.48558020649757        0.75812460331586        3.08934291351204
C           -0.86571770378644        1.49572940654195        3.21079491404323
C            0.21465670093885        0.68134520298004        3.70987671622610
C           -2.48643431087506        0.85667540374689        1.44910410633803
C           -1.88691890825292        0.60316670263810        2.71277671186503
C           -2.87992511259609       -0.30174040131974        0.70402900307925
C           -2.48643431087506        0.85667540374689       -1.44910410633803
C           -2.87992511259609       -0.30174040131974       -0.70402900307925
C           -0.86571770378644        1.49572940654195       -3.21079491404323
C           -1.88691890825292        0.60316670263810       -2.71277671186503
C            1.48558020649757        0.75812460331586       -3.08934291351204
C            0.21465670093885        0.68134520298004       -3.70987671622610
C            1.88691890825292       -0.60316670263810       -2.71277671186503
C            2.87992511259609        0.30174040131974       -0.70402900307925
C            2.87992511259609        0.30174040131974        0.70402900307925
C            2.48643431087506       -0.85667540374689       -1.44910410633803
C            1.88691890825292       -0.60316670263810        2.71277671186503
C            2.48643431087506       -0.85667540374689        1.44910410633803
C           -0.21465670093885       -0.68134520298004        3.70987671622610
C           -1.48558020649757       -0.75812460331586        3.08934291351204
C            0.86571770378644       -1.49572940654195        3.21079491404323
C           -2.61499061143733       -1.67975580734684        1.15751870506271
C           -1.81679210794621       -1.90934880835103        2.30366381007567
C           -2.61499061143733       -1.67975580734684       -1.15751870506271
C           -2.53719331109706       -2.53161711107268        0.00000000000000
C           -1.48558020649757       -0.75812460331586       -3.08934291351204
C           -0.21465670093885       -0.68134520298004       -3.70987671622610
C            0.86571770378644       -1.49572940654195       -3.21079491404323
C           -1.81679210794621       -1.90934880835103       -2.30366381007567
C            0.57131180249878       -2.65697071162094       -2.53941891110680
C           -0.84117860367911       -2.98926861307433       -2.24399570981469
C            2.20413490964035       -2.11128400923424       -0.73208950320198
C            2.20413490964035       -2.11128400923424        0.73208950320198
C            1.37946630603345       -3.07818601346324       -1.41717780619839
C            0.57131180249878       -2.65697071162094        2.53941891110680
C           -0.84117860367911       -2.98926861307433        2.24399570981469
C            1.37946630603345       -3.07818601346324        1.41717780619839
C           -1.66335770727512       -3.65231081597432        0.00000000000000
C           -0.83607140365678       -3.86218421689225       -1.15559050505427
C            0.56749850248210       -3.99204571746024       -0.68721840300573
C           -0.83607140365678       -3.86218421689225        1.15559050505427
C            0.56749850248210       -3.99204571746024        0.68721840300573
