16

C            1.24209600543263       -0.43169200188812       -0.15364200067199
H            1.07445800469942       -0.73709600322388       -1.18568100518588
O            2.65572801161551       -0.40325600176374        0.01531800006700
C            0.60143700263054        0.92742600405634        0.10827600047358
H            0.68321900298824        1.16009200507396        1.17547400514124
H            1.19993000524820        1.67016500730490       -0.42246400184775
C           -0.86114400376643        1.05925600463293       -0.32909100143936
H           -0.94579500413668        0.89895800393182       -1.40635600615106
H           -1.17778000515132        2.08748300913014       -0.13580900059400
H            2.83269401238951       -0.13323700058274        0.92076700402721
H            0.80995700354256       -1.20042900525038        0.49742100217560
C           -1.85256000810265        0.12779400055894        0.36415700159274
H           -1.67323000731830        0.11938000052214        1.44515600632076
H           -2.86405601252668        0.49787800217760        0.20490600089621
O           -1.86209100814433       -1.19856700524224       -0.16135300070572
H           -1.06746800466884       -1.64531200719619        0.13668100059781
