21

C            1.88394418511092       -2.26859940309887       -0.60684576642246
H            1.88349208361816       -2.26865449249329       -1.66869291180208
C            1.88394418511092       -2.26859940309887        0.60684576642246
H            1.88349208361816       -2.26865449249329        1.66869291180208
C           -0.67404461047399        0.33834173531666       -2.53016659567919
H           -0.66019458782237       -0.75191406870100       -2.53853806386515
H           -1.71646865192531        0.65259432624178       -2.58172072597067
H           -0.17502859880931        0.68834980742937       -3.43275555394727
C           -0.00799833908585        0.87447006299443       -1.26986718392380
H           -0.00946205316065        1.96682051610637       -1.28651833941458
H            1.03956169566478        0.56653397291542       -1.24496618994780
C           -0.69215731344035        0.38892444188668        0.00000000000000
H           -1.73558738882249        0.71822264859526        0.00000000000000
H           -0.70963036209070       -0.70408097794098        0.00000000000000
C           -0.00799833908585        0.87447006299443        1.26986718392380
H           -0.00946205316065        1.96682051610637        1.28651833941458
H            1.03956169566478        0.56653397291542        1.24496618994780
C           -0.67404461047399        0.33834173531666        2.53016659567919
H           -0.66019458782237       -0.75191406870100        2.53853806386515
H           -0.17502859880931        0.68834980742937        3.43275555394727
H           -1.71646865192531        0.65259432624178        2.58172072597067
