6

C           -0.66709995251466        0.00000000000000        0.00000000000000
C            0.66709995251466        0.00000000000000        0.00000000000000
H            1.23163391280706       -0.92340393418146        0.00000000000000
H            1.23163391227789        0.92340393471064        0.00000000000000
H           -1.23163391227789       -0.92340393471064        0.00000000000000
H           -1.23163391280706        0.92340393418146        0.00000000000000
