9

C           -0.65817500287870        0.94750000414414        0.02289800010015
H           -1.49499300653874        1.64366100718897        0.04817400021070
H            0.64885000283791        2.39745601048589        0.03258200014251
H            1.46502500640766        0.31345500137098       -0.02309900010103
H            0.52011000227483       -1.05805500462768       -0.05349400023397
O            1.73979000760942       -0.77201000337659       -0.09567700041847
N            0.55836200244214        1.38960700607780        0.01755100007677
H            2.16102500945180       -1.05453100461226        0.72511400317147
S           -1.07361400469573       -0.71738400313766       -0.01400700006126
