34

C           -1.55150178943860        0.98018914431333        2.81036999368239
C           -1.86693793528393        1.45962112087488        1.52759396313859
C           -3.20495351670110        1.41640196562323        1.10546554894176
C           -4.18792986212414        0.90308777694334        1.93753904358273
C           -3.87166117774169        0.45477023890798        3.21607073208119
C           -2.54947974446779        0.50569977948604        3.64729796127630
P           -0.59389000290636        2.10700559775354        0.47479820914602
C            0.80446960092228        2.91754659384054        1.21216734181766
C            0.65575597824526        3.67110283144547        2.38794112900354
C            1.75878049789699        4.26195638619889        2.98650911637139
C            3.02111508486952        4.14917401047579        2.41211534194972
C            3.17190099286907        3.42502728312806        1.23290340835977
C            2.08227139308513        2.80158376290479        0.64382167129465
C           -0.71880647469961        1.95611775595408       -1.28549383310154
C           -0.05305888073549        2.85859664008240       -2.13198741081509
C           -0.14200878224929        2.72204953681986       -3.50882141538973
C           -0.91118395895034        1.70879361966340       -4.07495204691679
C           -1.58420472354855        0.82060538552103       -3.24124479852574
C           -1.48181903314439        0.92714500388130       -1.86327530883503
H           -3.47299949824650        1.80037764310741        0.13115321320184
H           -5.21232699596641        0.87257699862529        1.58998594415168
H           -4.64350408761512        0.06790426269506        3.86659829665390
H           -2.28795186367322        0.14732610156265        4.63452833855912
H           -0.52310119100356        0.97488712027502        3.14507478270869
H           -0.32475269121662        3.79315269073313        2.82756072275900
H            1.62724502142946        4.83076432794276        3.89762243037951
H            3.87532962065817        4.62290355073876        2.87646320930648
H            4.14866244334489        3.32562307835486        0.77748907347540
H            2.21880133944131        2.21051427697801       -0.25100201086365
H           -1.98724861914702        0.21162811329119       -1.23023823641680
H           -2.18211828888577        0.02591892062104       -3.66752119786160
H           -0.98726599689554        1.61123257165736       -5.14903377992958
H            0.38257397623011        3.42305137663861       -4.14464430288593
H            0.52763607789306        3.66607084625488       -1.70788905557433
