10

C            0.00000000000000        0.00000000000000       -1.85916154632012
C            0.00000000000000        0.00000000000000        1.85916154632012
H            0.88862133027284       -0.51304576424067       -1.49459314156868
H            0.00000000000000        1.02609152848134       -1.49459314156868
H            0.00000000000000        0.00000000000000       -2.94828472787918
H           -0.88862133027284       -0.51304576424067       -1.49459314156868
H            0.00000000000000        0.00000000000000        2.94828472787918
H           -0.88862133027284        0.51304576424067        1.49459314156868
H            0.88862133027284        0.51304576424067        1.49459314156868
H            0.00000000000000       -1.02609152848134        1.49459314156868
