28

N           -1.02811822028829       -0.42391327563149        0.41855195504612
C            0.06797899494318        0.11506153549913       -0.34804771000366
C            1.33853249904745       -0.57701786367907        0.13193643958983
O            1.38241520724472       -1.18108503310632        1.19999728744320
C            0.19943839675345        1.64472172515659       -0.19876322547986
C           -1.06349920298513        2.33608701475468       -0.69586906635413
C            0.50460404709392        2.03771522409703        1.24122626147087
H           -0.75047605505248       -0.87797471988387        1.27747458240405
H           -0.11953183209238       -0.11703577060271       -1.39930300834167
H            1.03783144746418        1.95174394320052       -0.83104824073889
H           -1.30026573633153        2.05409477708590       -1.72008667843817
H           -0.94432079724518        3.41808737286663       -0.64462904262273
H           -1.91354324555556        2.05933018681573       -0.07309239815954
H            1.43507435945415        1.59916748681949        1.60021023949089
H            0.58248465630231        3.12079583154879        1.32805081158755
H           -0.30067221404502        1.70647618360199        1.89731102614706
N            2.41031094595124       -0.41735652380054       -0.67906131213861
H            2.26570895500550        0.01893228817710       -1.57255867663240
C            3.70836063424815       -0.97586512035153       -0.36271446750920
H            4.49058473539548       -0.25155368953577       -0.57559742917983
H            3.71285706016413       -1.21279168128899        0.69625066254911
H            3.90178270223739       -1.88834458693839       -0.92519847713353
C           -2.19045949465402       -0.80187308333603       -0.18812483331762
O           -2.45185407798249       -0.52517915098821       -1.35249770426990
C           -3.14776472771522       -1.57087243830775        0.69037583759484
H           -2.81675265308427       -1.64064413380644        1.72337259879515
H           -3.26401241850805       -2.57209007238837        0.28076176923700
H           -4.11897895864641       -1.08439639997954        0.65266680583783
