33

N           -1.29312381708538        3.03744366312638       -0.37690788218769
C            0.02652108886674        3.08289966009909        0.01444409012445
C            0.45802005814927        1.82575574911191        0.37635106441543
C           -0.67114186124187        0.94834981160706        0.20487107650708
C           -0.87053984759065       -0.42545309092806        0.41650306158128
C           -2.12533575801723       -0.96931305222612        0.16733507905441
C           -3.18745668276401       -0.16448110955216       -0.30431088772769
C           -3.00702869557698        1.19641579370494       -0.52386987174890
C           -1.75010078467292        1.74268775531385       -0.26339089038388
H           -1.84365677815611        3.82913360671569       -0.65346286292860
H            0.56576605072843        4.01682059340602        0.01707308960500
H           -0.08056790321705       -1.08080804467764        0.75661003720406
H           -4.15672961397667       -0.59608207880045       -0.50000587346234
H           -3.82701663764517        1.80433875091693       -0.88399984621104
O           -2.24736474941212       -2.31084495728415        0.41405106129424
C           -3.48513266166438       -2.91774291411393        0.08787308451266
H           -4.30312560353075       -2.51079694295927        0.68696204203416
H           -3.71992364498167       -2.80161792216883       -0.97251284014215
H           -3.36642567017107       -3.97285283931565        0.31506406864864
C            1.84162596004956        1.46707777447358        0.82640303222152
C            2.72287289753077        0.93769081201046       -0.31732788668829
N            2.22997493265394       -0.29111010032619       -0.90996784462131
C            2.52196091189779       -1.56483900984394       -0.49869787387034
C            3.70213082802675       -1.72710199864692        0.44057605946564
H            2.32731792569582        2.34966271219041        1.25137600186880
H            1.79416796344806        0.71439182783372        1.61756497601922
H            2.77815989369323        1.69552775850854       -1.10078583104907
H            3.73773182550648        0.77110282399541        0.03967108803643
H            1.37656699327652       -0.23411710457045       -1.44607280649958
O            1.87738695743407       -2.52540594192495       -0.89538984538582
H            4.61702576305193       -1.33920702622216       -0.00711090849112
H            3.53741883990068       -1.20051103605446        1.38079799313705
H            3.82002181979401       -2.78701392339861        0.64028704566784
