26

C            2.30826083628671        0.56725488288167        0.30423874751859
C            1.43229389830914       -0.67039602934762        0.13011375992755
C            0.14615998962533       -0.42890104652747       -0.67682518277573
C           -0.96773993141365        0.34533189862688        0.07798376356642
C           -2.13435084834893       -0.66078502976235        0.16647775738978
O           -2.82020679970290       -0.66865202953883        1.40897766910138
C           -1.45858089662828       -2.00793893414694       -0.06437822608646
O            3.49319775218491        0.26436490451776        1.02421869660951
O           -1.44691689743135        1.50553481609481       -0.58848818895155
O            2.24857284048116       -1.62824196131490       -0.54519419204158
O           -0.41903697044450       -1.72175695467697       -1.00590315915440
C           -0.60523295695057        2.64577173504665       -0.49747219527969
H            1.78625087296564        1.33531382808545        0.88184870685555
H            2.54861581899154        0.97792685375040       -0.68933618195809
H            1.16702091696604       -1.05501100213685        1.12896668914719
H            0.38972897245475        0.05186291929985       -1.63042811524403
H           -0.64497695425340        0.61012487972646        1.09695169120025
H           -2.82016179953124       -0.43637204606336       -0.66069218360575
H           -3.39117975919284        0.10902091515583        1.45656966554375
H           -2.11375085002493       -2.75931088085440       -0.50899019448414
H           -1.05848492496897       -2.39686990696059        0.88374470646805
H            3.88952372410343       -0.51321904050768        0.60355372635639
H            1.66223588214411       -2.33743891083011       -0.85149317021561
H           -0.40813197117952        2.91372371623742        0.55098273011219
H            0.35325597507063        2.49180674604146       -1.01229215904317
H           -1.13636591951233        3.46685567720342       -0.98313516095644
