24

N            1.36618090651551        0.83789664193695        1.02761586604399
H            1.04109222104923        1.38437298383732        1.81634649946312
C            1.29826250938113        1.45567894390453       -0.22766397948340
O            0.90984118712122        2.60922681448167       -0.33298570677157
N            2.00070267933099       -1.21505898227705        0.19491916714824
H            1.71656527824421        0.98899184945398       -2.31900439531320
C            2.01501661733334       -0.69902194460563       -1.07140632292183
H            2.28679670866787       -1.39291070430176       -1.85265418262512
C            1.70379211743466        0.59008699098667       -1.31949612938906
H            2.11873395494510       -2.20337151429493        0.34982010007575
C            1.63522480471228       -0.48705670789491        1.31170920768867
O            1.55039579771964       -0.97366707292865        2.42279987608440
N           -1.36618090651551       -0.83789664193695        1.02761586604399
H           -1.04109222104923       -1.38437298383732        1.81634649946312
C           -1.29826250938113       -1.45567894390453       -0.22766397948340
O           -0.90984118712122       -2.60922681448167       -0.33298570677157
N           -2.00070267933099        1.21505898227705        0.19491916714824
H           -1.71656527824421       -0.98899184945398       -2.31900439531320
C           -2.01501661733334        0.69902194460563       -1.07140632292183
H           -2.28679670866787        1.39291070430176       -1.85265418262512
C           -1.70379211743466       -0.59008699098667       -1.31949612938906
H           -2.11873395494510        2.20337151429493        0.34982010007575
C           -1.63522480471228        0.48705670789491        1.31170920768867
O           -1.55039579771964        0.97366707292865        2.42279987608440
