24

C           -1.04782551742304       -1.42167397914105        0.00000000000000
C           -1.45450380273129       -0.85544613494767        1.20620520505224
C           -1.45450380273129       -0.85544613494767       -1.20620520505224
C           -2.26679755367030        0.27716107841921        1.20695425068679
C           -2.67147876245016        0.84502131724666        0.00000000000000
C           -2.26679755367030        0.27716107841921       -1.20695425068679
C            1.04782551742304        1.42167397914105        0.00000000000000
C            1.45450380273129        0.85544613494767       -1.20620520505224
C            1.45450380273129        0.85544613494767        1.20620520505224
C            2.26679755367030       -0.27716107841921       -1.20695425068679
C            2.67147876245016       -0.84502131724666        0.00000000000000
C            2.26679755367030       -0.27716107841921        1.20695425068679
H           -1.13385373027261       -1.29205968776222       -2.14231568210168
H           -2.58249511857665        0.71630677640561       -2.14379838115796
H           -3.30304320660368        1.72327051079993        0.00000000000000
H           -2.58249511857665        0.71630677640561        2.14379838115796
H           -1.13385373027261       -1.29205968776222        2.14231568210168
H           -0.40602540946232       -2.29190553306038        0.00000000000000
H            0.40602540946232        2.29190553306038        0.00000000000000
H            1.13385373027261        1.29205968776222        2.14231568210168
H            2.58249511857665       -0.71630677640561        2.14379838115796
H            3.30304320660368       -1.72327051079993        0.00000000000000
H            2.58249511857665       -0.71630677640561       -2.14379838115796
H            1.13385373027261        1.29205968776222       -2.14231568210168
