12

N            1.31405338274055        0.05469380114247        0.00000000000000
H            2.34247527078398        0.10593007145953        0.00000000000000
C            0.74722789351946       -1.20850063123546        0.00000000000000
O            1.44995358286780       -2.22159182020441        0.00000000000000
C           -0.69957014011693       -1.23040471066830        0.00000000000000
H           -1.20553841146396       -2.17990809973249        0.00000000000000
C           -1.37796795732012       -0.06398156280089        0.00000000000000
H           -2.45684528407482       -0.01728776181032        0.00000000000000
N           -0.73078472629005        1.13733652863554        0.00000000000000
H           -1.23978606610860        2.00580547811757        0.00000000000000
C            0.65257371267221        1.26894661936438        0.00000000000000
O            1.20420874279048        2.34896208773238        0.00000000000000
