33

N            0.87996408202552        0.70373137658012       -0.51130604135429
C            1.10704505674882       -0.55461340431420        0.18358223669100
C            2.53243114025743       -1.06013263407563       -0.07940657813965
O            2.76690308045714       -2.01908401242325       -0.80809095940796
C            0.07718332631682       -1.58491824790753       -0.26644423185372
C           -1.32238121385103       -1.05727566604229       -0.13752798555780
C           -2.07592784234252       -0.72619729448168       -1.26740073131356
C           -1.89158915351404       -0.82886443646799        1.11809780896230
C           -3.35242678391869       -0.18162063251843       -1.15826253053236
C           -3.16675390433876       -0.28680813046506        1.24281793727439
C           -3.90005449288534        0.04280723582417        0.10221592750552
O           -5.15467166807895        0.58022153288967        0.15896195420682
H            0.26422699006630        0.69669231714667       -1.30798606626373
H            1.00110219619775       -0.34780853556763        1.25099336412152
H            0.29514283635165       -1.86478955331470       -1.29734109257229
H            0.21986335319970       -2.48487569506945        0.33175679586665
H           -1.66547895967872       -0.91529276596069       -2.25261121872183
H           -1.33556164920917       -1.08011079666563        2.01327827437788
H           -3.93449895012007        0.06698800353328       -2.03455360921858
H           -3.59268958313145       -0.12109208489697        2.22540859723132
H           -5.40384283908983        0.66587446051880        1.08499563966273
N            3.48006481005633       -0.34829084470072        0.56680852246088
H            3.17893940826750        0.51000898312936        1.01448876627245
C            4.88363248220245       -0.61129548907318        0.33472406593928
H            5.22197823193888       -0.20587245822108       -0.61938976816787
H            5.46574877073227       -0.16715242966858        1.13668254001198
H            5.04710375290073       -1.68503746459886        0.32074555586635
C            1.21384702896269        1.89626370841505        0.03660111040435
O            1.87545519877294        1.98194332914248        1.07275048161519
C            0.72162499585692        3.11678537885875       -0.69686589177253
H            0.01691199418125        3.64009884120627       -0.05402369494996
H            0.23599868554326        2.88135440057147       -1.64048147593928
H            1.56330964209585        3.78057601925538       -0.87605370626032
