21

C           -2.71975130922561       -1.20867809401378       -1.86147878069942
H           -2.33650329240230       -2.23792565029163       -1.93297428194679
H           -2.49371587301351       -0.70562902758309       -2.81401656871436
H           -3.81349181991212       -1.26645588719634       -1.76687568262566
C           -2.09146531649295       -0.46543194992923       -0.68003498288537
H           -2.52280560166984        0.54779526985352       -0.60988811039789
H           -2.36042350153264       -0.97454019586261        0.26116110120711
C           -0.56564817853115       -0.35722101913042       -0.77518951949110
H           -0.29531522729326        0.16036286234153       -1.71284520245727
H           -0.13359869540090       -1.37069293151385       -0.85455283862292
C            0.07325777004513        0.37373546599382        0.40954403207034
H           -0.18267879864529       -0.14625073121101        1.34803291550905
H           -0.36050471660338        1.38555877260342        0.49354796466765
C            1.60506116826581        0.48633280813129        0.30016299123749
H            1.84902315793910        1.00365202421417       -0.64608436725693
H            2.04960518141943       -0.52026634807293        0.23048515147834
C            2.22514334114436        1.23328918842873        1.44457500196438
H            1.87497865120395        2.26269755462292        1.58821688475547
C            3.13815232563228        0.74135195160468        2.28698766306877
H            3.54447130069234        1.33738550346460        3.10530874343728
H            3.51620943438051       -0.27906956645382        2.18591788570177
