12

C           -1.20851036159823        0.69773378258719        0.00000000000000
H           -2.14491531699586        1.23836743565651        0.00000000000000
C           -1.20851036159823       -0.69773378258719        0.00000000000000
H           -2.14491531699586       -1.23836743565651        0.00000000000000
C            0.00000000000000       -1.39546756517438        0.00000000000000
H            0.00000000000000       -2.47673487131302        0.00000000000000
C            1.20851036159823       -0.69773378258719        0.00000000000000
H            2.14491531699586       -1.23836743565651        0.00000000000000
C            1.20851036159823        0.69773378258719        0.00000000000000
H            2.14491531699586        1.23836743565651        0.00000000000000
C            0.00000000000000        1.39546756517438        0.00000000000000
H            0.00000000000000        2.47673487131302        0.00000000000000
