43

H            7.06297674679225       -1.63698385321383        0.55058549831340
C            6.83974874485904       -0.85495148527118       -0.17909962908936
H            6.63952292638178       -1.31642053765842       -1.15038560491756
H            7.72768804735296       -0.22241234140975       -0.26245463961060
C            5.68839443872274       -0.01111210917096        0.34823026862275
O            5.73947698382932        0.54726883622235        1.44028229410580
N            4.60714146170186        0.08445651987378       -0.47815301181884
H            4.56234352887071       -0.41928753149832       -1.35335435896230
C            3.40569072689973        0.81498527322806       -0.10916781713087
H            3.41072734880806        0.89333999938170        0.98239528194747
C            3.37045479819426        2.22526924045389       -0.72227381482285
H            3.38045163411343        2.16387823226041       -1.81428114335278
H            2.46827100934367        2.76386632271862       -0.41282222901834
H            4.24349640274495        2.78977712818512       -0.38699197173182
C            2.21122398085029       -0.01031733103860       -0.60317099560072
O            2.21309806353024       -0.50849039047550       -1.72780505516682
N            1.18562214164765       -0.15244658908331        0.27563999735921
H            1.20146890251413        0.30394828992236        1.17901730995411
C           -0.07068300229316       -0.79255462867712       -0.07695256053530
H           -0.15454072851888       -0.79169204548119       -1.16678145328750
C           -0.10520715272428       -2.24635242890163        0.41243167454043
H            0.73414675858315       -2.78312838060402       -0.05175591252391
H            0.03263775009322       -2.25530827640753        1.50314117003094
O           -1.36444320338636       -2.78205542935803        0.03061601056694
H           -1.39994013816757       -3.70420654072609        0.31058948826137
C           -1.19138022153988        0.02306935509438        0.58384678638107
O           -1.05828289398374        0.42167773023726        1.74288604951235
N           -2.26594502516076        0.29884495464306       -0.18741166160844
H           -2.37477069429908       -0.13248234108542       -1.09682234901436
C           -3.43467670337873        1.00041176039714        0.32705068472509
H           -3.41305058122931        0.89464304428747        1.41645938378379
C           -3.41343484961113        2.49177456333561       -0.04403582874567
H           -3.42102553051093        2.60757390385854       -1.13073437053170
H           -4.28711729358518        3.00749649007553        0.36777516802314
H           -2.51123675762971        2.95767525948905        0.36021269332704
C           -4.66745723472050        0.31774202154326       -0.28282208730503
O           -4.69548544013605        0.04214967553354       -1.47906963267568
N           -5.68639185699903        0.06321736067653        0.57935142068267
H           -5.55766020809468        0.28687416601646        1.55510975728838
C           -6.93899755904246       -0.54238264669483        0.15698416142688
H           -7.10136938054735       -1.50147982082319        0.66148972526433
H           -7.78745488103775        0.11699495081299        0.36653829990265
H           -6.87213647565379       -0.71153064059485       -0.91702346568769
