7

C            0.00000000000000        0.00000000000000        0.00000000000000
C            0.00000000000000        0.00000000000000       -1.30115726225169
C            0.00000000000000        0.00000000000000        1.30115726225169
H           -0.65550927033720       -0.65550927033720       -1.86483273571504
H            0.65550927033720        0.65550927033720       -1.86483273571504
H           -0.65550927033720        0.65550927033720        1.86483273571504
H            0.65550927033720       -0.65550927033720        1.86483273571504
