20

C            0.68285995160234        2.93364079152660       -0.29985487860777
C            0.68285995160234        1.41342089956897       -0.39768387170440
C           -0.03029399776727        0.76238494574941        0.78169004442202
C            0.03029399776727       -0.76238494574941        0.78169004442202
C           -0.68285995160234       -1.41342089956897       -0.39768387170440
C           -0.68285995160234       -2.93364079152660       -0.29985487860777
H            1.18477691599342        3.26315876817259        0.60974405671162
H           -0.33659197632554        3.31839876440271       -0.27216688069193
H            1.18996091534251        3.39223475903819       -1.14731581865360
H            1.71132587831983        1.04569192554128       -0.43868786905113
H            0.20831198546248        1.11119792103301       -1.33210280521767
H           -1.07662692360177        1.08214092315136        0.78922404409240
H            0.41248197071761        1.13952791885783        1.70715397870047
H           -0.41248197071761       -1.13952791885783        1.70715397870047
H            1.07662692360177       -1.08214092315136        0.78922404409240
H           -0.20831198546248       -1.11119792103301       -1.33210280521767
H           -1.71132587831983       -1.04569192554128       -0.43868786905113
H           -1.18996091534251       -3.39223475903819       -1.14731581865360
H           -1.18477691599342       -3.26315876817259        0.60974405671162
H            0.33659197632554       -3.31839876440271       -0.27216688069193
