35

C           -1.51031025723312        0.62606097139657        0.26497407178856
C           -2.64798800495413        0.70649822748310        1.08994942568725
C           -3.84604622249879        0.11096203038657        0.69986012461837
C           -3.93599116500976       -0.57865545752344       -0.51658436609009
C           -2.80594137901985       -0.65830743930674       -1.33319462384009
C           -1.59593989557753       -0.06330214012920       -0.95652060681387
O           -0.39811711537537        1.24209638924406        0.76974343171181
C            0.89290404757474        1.24008454086284        0.07205807324254
C            1.39651041287730       -0.17414212314872       -0.28877991305041
C            1.22123929305430       -1.25197092101955        0.50555608176245
C            0.55528808976903       -1.24312787640778        1.86529020672441
C            1.65656442141175       -2.65293130978314        0.11652312268769
C            2.16307856964730       -0.23698383484997       -1.59369950020427
C            0.75466869922144        2.19596016044057       -1.13248579175295
C            1.85638093370386        1.87764861355854        1.08582259177351
H           -2.56710235785284        1.23975776437517        2.03441948644944
H           -4.71466446508049        0.18480743481700        1.35202066935408
H           -4.87057224571413       -1.04502806921791       -0.81997014076253
H           -2.85571275986148       -1.19117830342239       -2.28139401185727
H           -0.73197611779794       -0.15867718693328       -1.60121392211886
H           -0.46062160181608       -1.65992441902411        1.78725763844460
H            0.47045508292392       -0.25399864084235        2.31364475901190
H            1.11759412082669       -1.89878023414508        2.54682163424393
H            1.78569761048136       -2.79797688245619       -0.95987977223734
H            2.60065783413464       -2.92229297022683        0.61659079567027
H            0.90256420404375       -3.37545739419193        0.45957532887789
H            2.68118452483435       -1.18755329185565       -1.73459085994406
H            2.92611437547186        0.55377782596176       -1.62459115938491
H            1.50889400678066       -0.06827535226529       -2.46284512668882
H            0.09738606826753        1.79593088343432       -1.90891210684362
H            1.73237857359608        2.40894393951677       -1.57661126460318
H            0.32754353881071        3.13560456051435       -0.76587698287147
H            1.93227805522332        1.26269405258772        1.98707807263167
H            1.51001154985414        2.88270013016184        1.35826757945884
H            2.85158957528278        1.95503632200832        0.63169705492452
