5

Si          -0.00061187532055       -0.67853863535718       -0.32596355856433
H            0.00370442637217        1.16422473465438       -0.61329625356807
H           -0.00028384300580        1.19708051871424        0.17207022644406
H            1.28833375776072       -0.84467914975121        0.38450891183087
H           -1.29114246580654       -0.83808746826022        0.38268067385747
