4

P           -0.35452200155059        1.22104300534054        0.00000000000000
F           -0.35452200155059        2.84696901245195        0.00000000000000
H           -1.28013900559901        1.02079600446471        1.05092300459648
H           -1.28013900559901        1.02079600446471       -1.05092300459648
