20

C           -2.59080861301442       -0.93951350968734       -1.82886790273070
H           -2.38449391792689       -2.01917182748182       -1.88356865653478
H           -2.20188951536072       -0.48098684065796       -2.75054566127353
H           -3.68213573721038       -0.80911816753187       -1.82707466991466
C           -1.95140595515960       -0.31512511772552       -0.58646515578685
H           -2.20307748475520        0.75767773840645       -0.53992585564479
H           -2.38460626918099       -0.76841282108097        0.32076266027795
C           -0.42731921757561       -0.47589649678502       -0.54910526634034
H            0.00676755844584       -0.02331595442109       -1.45803527012329
H           -0.17546873358255       -1.55003152479481       -0.59421079030462
C            0.21658930654685        0.14829004169389        0.69464407404203
H           -0.20185095127561       -0.30745667783298        1.60606772054845
H           -0.02106000276257        1.22382357838997        0.74297532819048
C            1.72819476512818       -0.02858929862170        0.70914677998600
H            2.19706176641280        0.47796736100657       -0.15271996058581
H            2.00488203630882       -1.09222562587188        0.66997751199756
O            2.29664374686396        0.48708243391347        1.93899327155990
C            3.05488967754759        1.60756773869556        1.85749554435304
H            3.16471144023380        1.97796617478671        0.81064564164698
O            3.55437610031670        2.12946879560035        2.81981065663697
