33

N           -0.88194505849354        2.48608509630398       -0.12352429446337
C            0.36283885297007        1.89141213848279       -0.14769129274158
C            0.23129486214445        0.52120523587140       -0.11581729459166
C           -1.18053803746997        0.25505725471830       -0.07028429810135
C           -1.92928898426878       -0.92939366112516       -0.02412930142556
C           -3.31625888580752       -0.84611266714958        0.01239569608637
C           -3.96834383925415        0.40756124365368        0.00412769640301
C           -3.23946089105622        1.59158915957690       -0.04052829998745
C           -1.84772999008863        1.50530816579916       -0.07731129731938
H           -1.05103104658305        3.47445902608449       -0.14665729264255
H            1.25069679023439        2.50083009540039       -0.18705428986104
H           -1.46122401735319       -1.90479059192127       -0.01508230208674
H           -5.04531376282378        0.46510823979411        0.03268069479628
H           -3.75084585494568        2.54550309213793       -0.04599129955415
O           -3.98125583834339       -2.04504358231332        0.05605769288317
C           -5.39699973802481       -1.99538558543356        0.09645069005112
H           -5.80652470882206       -1.51257461980580       -0.79357824646359
H           -5.75431371289279       -1.47481962236440        0.98768262681565
H           -5.72944271418686       -3.02863351250669        0.12806768799679
C            1.31398078543449       -0.51418569062753       -0.11902229447027
C            2.71312268623827        0.07909126701901       -0.23711328611850
N            3.70278661564796       -0.98487165745177       -0.23895928589304
C            5.04686452032854       -0.85084066708756       -0.00939830224144
C            5.49827748852854        0.47325023920849        0.57307365634519
H            1.14947079695008       -1.20618964186817       -0.95194323549612
H            1.26449278885045       -1.11292064817449        0.79460264064925
H            2.89869767323298        0.73426622061112        0.61290765346217
H            2.77550868147008        0.68712922396411       -1.14602622150218
H            3.46355663300124       -1.83905359681836       -0.71940025200519
O            5.82706446506716       -1.76285060204370       -0.23922028614783
H            5.01767252246108        0.66003422573505        1.53341358780722
H            5.25062450595997        1.30008918038777       -0.09297729654239
H            6.57356641189469        0.42968724194266        0.71024964635913
