38

C            1.08849452878756        1.35614175457538       -1.48619926214882
C            2.35169910430666        1.51032695404242       -0.85114272290643
C            2.86391096467816        0.10922614334299       -0.56657540508995
C            1.87076191462608       -0.78697460705364       -1.05008093886724
C            0.86822024581135       -0.02000379978520       -1.66771477042862
C           -2.11314326920770       -1.83234582869600       -1.20380685377699
C           -0.70138928002950       -1.79204042491159       -1.37906363708799
C           -0.36541152373980       -0.50229331066001       -1.82812117849395
C           -1.48187350227971        0.35174991057460       -1.82039607838397
C           -2.62319281992817       -0.43267532422006       -1.50073956049459
C            0.03236845882639        2.28498443267261       -1.51892296259812
C           -1.34662327852702        1.74730783630494       -1.70204203850415
C            1.63741025641986       -2.10839287427355       -0.62813387073527
C            0.25539400793497       -2.64436606455953       -0.79742044128361
C           -3.79520162286951        0.27064021438786       -1.29062923689402
C           -3.74947061027446        1.68400458685157       -1.34249080910241
C           -2.57346824569799        2.41419033583080       -1.49596107850484
C            0.40882433977974        3.57615847232013       -1.09110960076948
C            1.69368303723836        3.80722790329881       -0.60638090023639
C            2.66008076254151        2.78998777262552       -0.42928379279582
C           -2.61022626772700       -2.96198995508267       -0.57952614849321
C           -1.69106735476813       -3.93972859884064       -0.13118324491485
C           -0.30828127619670       -3.78936060333647       -0.19357060539157
C            2.68846345853474       -2.63852400263647        0.15070864521929
C            3.76189843298994       -1.83359860513873        0.52258871083017
C            3.84733277056772       -0.45230858524575        0.22681729629670
H           -4.72604898520495       -0.21853662463973       -1.03194212699381
H           -4.67073986408815        2.22875294545371       -1.17782695821784
H           -2.61119851655523        3.49187764749082       -1.39789343247757
H           -0.30708879182388        4.38843453112929       -1.08218050667513
H            1.94454896434125        4.80672485438150       -0.27361418397221
H            3.58575000258900        3.02562441852567        0.08063095018189
H           -3.66412503286668       -3.09567975272778       -0.36842234374526
H           -2.08781213912721       -4.82159121112719        0.35600833676051
H            0.32081006433977       -4.53333746661701        0.27860673921822
H            2.64957379667953       -3.65648376147508        0.51775885954318
H            4.54013251489702       -2.27274465825812        1.13384378977085
H            4.64100476501184        0.13561532643330        0.67041124601816
