17

C            0.00000000000000        0.00000000000000        0.00000000000000
C           -0.88148198781421       -0.88148198781421       -0.88148198781421
H           -1.52181237138470       -0.27373720744585       -1.52181237138470
H           -0.27373720744585       -1.52181237138470       -1.52181237138470
H           -1.52181237138470       -1.52181237138470       -0.27373720744585
C            0.88148198781421        0.88148198781421       -0.88148198781421
H            1.52181237138470        1.52181237138470       -0.27373720744585
H            1.52181237138470        0.27373720744585       -1.52181237138470
H            0.27373720744585        1.52181237138470       -1.52181237138470
C            0.88148198781421       -0.88148198781421        0.88148198781421
H            1.52181237138470       -0.27373720744585        1.52181237138470
H            1.52181237138470       -1.52181237138470        0.27373720744585
H            0.27373720744585       -1.52181237138470        1.52181237138470
C           -0.88148198781421        0.88148198781421        0.88148198781421
H           -1.52181237138470        0.27373720744585        1.52181237138470
H           -0.27373720744585        1.52181237138470        1.52181237138470
H           -1.52181237138470        1.52181237138470        0.27373720744585
