9

C            0.45910018613402        0.34773206309564        0.18181115628424
O            1.04354945135325        1.32270348990494        0.65969480949425
N            1.10322872949343       -0.73738933639386       -0.28501296045235
H            2.12343247483099       -0.78099586377705       -0.25232768865806
H            0.58522288502398       -1.50604366999034       -0.66377453847931
C           -1.04786930214142        0.32355454107023        0.09637552839270
H           -1.45177888197714        0.43009733972072        1.10006381808122
H           -1.44057747203512       -0.58381002761529       -0.35491855432593
H           -1.37430807068197        1.18415146398500       -0.48191157033675
