6

C           -0.13926931698610        0.33472046121342        0.00000000000000
O           -0.13926931698610       -1.08341096274531        0.00000000000000
H           -1.17980274369889        0.64759119538859        0.00000000000000
H            0.76774402090924       -1.38539122992007        0.00000000000000
H            0.34529867838092        0.74324526803169        0.88954159975834
H            0.34529867838092        0.74324526803169       -0.88954159975834
