5

H           -0.38218722151871       -0.06737526107153       -1.42679099784449
Si           0.00000000000000        0.00000000000000        0.00000000000000
H            1.44184535764264       -0.29700913200464        0.13858783798769
H           -0.27616004996746        1.35606972175119        0.52072025632690
H           -0.78349808615647       -0.99168532867502        0.76748290352990
