7

C           -0.05874999586107        0.89144293665219        0.00000000000000
N           -0.05874999586107       -0.65268195371312        0.00000000000000
H            0.54543796139085        1.14559091859664        0.87796193765022
H            0.54543796139085        1.14559091859664       -0.87796193765022
H           -0.58279695859166       -0.96168893170433       -0.81209694251766
H           -0.58279695859166       -0.96168893170433        0.81209694251766
H            0.83846194025510       -1.14768291856875        0.00000000000000
