12

C            1.21711980532339        0.00008635200038       -0.73729253422474
C            2.23268786876524        0.00017471700076        0.21649997994692
C            1.92521009542040        0.00013010900057        1.57549945989085
C            0.59251213459151        0.00017813200078        1.98195787266860
C           -0.43304919589405        0.00007025000031        1.03876679954331
H            1.44830201333452       -0.00002031800009       -1.79278536784121
H            3.26463344627872        0.00010243200045       -0.10705227746822
H            2.71709398588391       -0.00002315100010        2.31123906910880
H            0.34570749951204        0.00010950700048        3.03493334627406
H           -1.46850146242287       -0.00009320700041        1.34757497589397
C           -0.11108172548585       -0.00010873600048       -0.31681084538566
Br          -1.49375597953332       -0.00174776300764       -1.60646280902628
