12

C           -1.88027284836666       -0.32890700214610       -0.00123733306702
C           -0.56283016041534        0.42581035003390       -0.01210492622301
N            0.56180559264138       -0.34443522014577       -0.03231723012477
C            1.89162422780691        0.24177094852574        0.00269617871241
O           -0.51591930560519        1.64564461748575       -0.01202984869371
H           -2.47089694606636       -0.01200467311518       -0.86172296666779
H           -2.43450218421469       -0.05182872334997        0.89675170514652
H           -1.76651015517853       -1.41389020454338       -0.02853983321747
H            0.47046154301929       -1.34374113067748        0.03376858477225
H            1.94037266978690        1.07983019633156       -0.69174622440949
H            2.62057009233838       -0.51223898292707       -0.29279093785117
H            2.14609747425391        0.61398982452799        0.99927283162324
