7

C            0.00000000000000        0.00000000000000       -0.95112444397924
C            0.00000000000000        0.00000000000000        0.50452091676887
C            0.00000000000000        0.00000000000000        1.70547887380842
H            0.51017026973262        0.88364082768802       -1.34219782587025
H            0.51017026973262       -0.88364082768802       -1.34219782587025
H           -1.02034053946524        0.00000000000000       -1.34219782587025
H            0.00000000000000        0.00000000000000        2.76771813101270
