11

O           -2.19295184780281        0.62684471591296       -0.92850827008526
S           -1.26210560831851       -0.30855214144029       -0.04450020637489
O           -1.03795238693171        0.29959204234083        1.25082552750994
O           -1.75626072211941       -1.63296047223481       -0.19472253950149
O            0.11654402041700       -0.10789623382513       -0.91318743476237
S            1.60009680638252       -0.36655697237428       -0.13981113297369
O            1.61686017222886        0.86635254345384        0.85542561103225
O            1.49345575697681       -1.60323603690961        0.57240282457317
O            2.55438766581018       -0.10150255380797       -1.16106680766265
H           -1.97235628065332        1.56419583221338       -0.75763441549895
H            0.84028242401039        0.76371927667106        1.46077684374396
