9

C           -0.09898486019131       -1.10444759828890        0.00000000000000
C           -0.49596116712335        0.35996476575536        0.00000000000000
O           -1.65973303851956        0.71433020876955        0.00000000000000
N            0.53409136125473        1.25435430432267        0.00000000000000
H           -0.53286494461477       -1.58026665327964        0.87869186189884
H            0.97803817196836       -1.26791183249095        0.00000000000000
H           -0.53286494461477       -1.58026665327964       -0.87869186189884
H            1.49483201419643        0.96918365491146        0.00000000000000
H            0.31344740764424        2.23505980358010        0.00000000000000
