17

C            0.00000000000000        2.53299582020724        0.30165897872530
C            0.00000000000000        1.27182790970979       -0.55188196087724
C            0.00000000000000        0.00000000000000        0.28527997988693
C            0.00000000000000       -1.27182790970979       -0.55188196087724
C            0.00000000000000       -2.53299582020724        0.30165897872530
H            0.00000000000000        3.43387075643216       -0.30988997799567
H            0.87444293777327       -1.26924390987173       -1.20653691424964
H           -0.87444293777327       -1.26924390987173       -1.20653691424964
H            0.87962693765154        2.56514081794452        0.94437193282808
H           -0.87962693765154        2.56514081794452        0.94437193282808
H           -0.87513293775952        0.00000000000000        0.94180293304724
H            0.87513293775952        0.00000000000000        0.94180293304724
H           -0.87444293777327        1.26924390987173       -1.20653691424964
H            0.87444293777327        1.26924390987173       -1.20653691424964
H            0.00000000000000       -3.43387075643216       -0.30988997799567
H            0.87962693765154       -2.56514081794452        0.94437193282808
H           -0.87962693765154       -2.56514081794452        0.94437193282808
