5

F           -0.20511592550368        1.19194565532739       -0.69629008079903
N           -1.07146811414627       -0.00912579911730        1.50279445312235
H           -0.61757273596162       -0.91698370489959        1.47414850528117
H           -0.60090008716373        0.48687620550560        2.25355568011495
H           -0.76307211569594        0.48318494574625        0.60817262672433
