5

C            0.00000000000000        0.00000000000000        0.00000000000000
H            0.62663513103488       -0.62663513103488        0.62663513103488
H           -0.62663513103488        0.62663513103488        0.62663513103488
H           -0.62663513103488       -0.62663513103488       -0.62663513103488
H            0.62663513103488        0.62663513103488       -0.62663513103488
