17

C           -0.60440289258167        0.09628447021181        1.30447607032230
Si          -0.74911343385474        1.43122735111750        0.00000000000000
C            1.54144541789397       -0.09064058413383        0.69774154842561
C           -1.15781214676832       -1.04204796111275        0.70423074299472
C           -0.60440289258167        0.09628447021181       -1.30447607032230
C            1.54144541789397       -0.09064058413383       -0.69774154842561
C           -1.15781214676832       -1.04204796111275       -0.70423074299472
H           -0.57568155991356        0.19510471583736        2.38339309369345
H           -2.10162282034651        2.06016253132383        0.00000000000000
H            0.27093285752456        2.50947165822125        0.00000000000000
H            1.87608655478380        0.78960883820848        1.23339856345436
H            1.64747963417972       -1.02087075317532        1.23794699755102
H           -1.43721330925559       -1.92786949616706        1.26742419279557
H           -0.57568155991356        0.19510471583736       -2.38339309369345
H            1.87608655478380        0.78960883820848       -1.23339856345436
H            1.64747963417972       -1.02087075317532       -1.23794699755102
H           -1.43721330925559       -1.92786949616706       -1.26742419279557
