23

N            1.04300118292754       -0.67380324623593       -0.32999381808152
C           -0.04259760990417       -0.35637087028471        0.55050472613861
C           -1.33782535610276       -0.63492965652344       -0.19751193616433
O           -1.37787068927445       -0.66560016530624       -1.42344130671717
C           -0.01319464293808        1.10354850616994        1.03490891698335
S            0.03402331970790        2.33490907536503       -0.29519823001890
H            0.82810565336199       -0.66750809122812       -1.31489660507131
H            0.02820077925282       -0.98714507022058        1.44024841711180
H           -0.85533714315088        1.29359503739851        1.69890761720427
H            0.90869592246614        1.25001534451580        1.59497939486250
C            2.32060233199518       -0.71918293129541        0.12729637434307
O            2.58900201424325       -0.60042043612593        1.31916046162064
N           -2.42711886313656       -0.76826331404875        0.59567473557918
C           -3.75421340007711       -0.98857788629182        0.05840367714180
H           -4.46292188783083       -0.28736732204007        0.49256263472264
H           -3.69925320390206       -0.82923932035234       -1.01353443002969
H           -4.09437825988354       -2.00558213640276        0.24585892491408
H           -2.28445057143231       -0.81583783137074        1.58932509695584
C            3.37767108140314       -0.91837422473266       -0.92931665368214
H            3.87635768955747        0.03356840306400       -1.10294998649669
H            2.97007596223736       -1.27884667765745       -1.87040188103360
H            4.11605695685984       -1.62082787683020       -0.55412541285947
H           -1.08344728099183        1.93975566041903       -0.91799171393068
