17

C           -1.97689925545835       -1.06002496196264       -1.35973658024352
H           -1.62721706760548       -2.10186367321792       -1.30609520751796
H           -1.64207901497134       -0.64702685354269       -2.32304483977538
H           -3.07579263775580       -1.07758717395072       -1.36824091385601
C           -1.44163139101944       -0.23458280117688       -0.18719065328014
H           -1.83362215462747        0.79479237962648       -0.24962946214388
H           -1.82170578938988       -0.64881109526750        0.76163267695780
C            0.08938567531926       -0.18782443124761       -0.14060737946437
H            0.48679603934799       -1.21310700746704       -0.05855749981255
H            0.47764326896785        0.22597789667282       -1.08439542692983
C            0.61609512407598        0.65504474436900        1.03806499865464
H            0.25255483829092        0.24976427275895        1.99123281860092
H            0.25280807604520        1.68969416246534        0.93750793997601
O            2.81183429222312        0.07628412109631        1.91127016981744
O            2.66787956425711        1.44074623251359        0.11142495823518
H            3.63914604085760        1.36683087050416        0.22083832920264
C            2.12480439144278        0.67169331782634        1.10552607157896
