11

N           -1.58124826588499        0.30465702979307        0.00000000000000
C           -1.10932419120749       -0.95044891634897        0.00000000000000
H           -1.85355730320350       -1.73634241893102        0.00000000000000
C            0.24707755436201       -1.26359024570679        0.00000000000000
H            0.56309614134332       -2.29695453157752        0.00000000000000
C            1.17356777550206       -0.22597674459317        0.00000000000000
H            2.23515699565664       -0.43070041173660        0.00000000000000
C            0.69951607661803        1.08164241588443        0.00000000000000
H            1.37689707938974        1.92367008304277        0.00000000000000
C           -0.67651751906734        1.29340925384251        0.00000000000000
H           -1.07466434350847        2.30063448633129        0.00000000000000
