23

C           -1.22475970425749       -1.16523170312082        0.00000000000000
C           -0.59862084379172        0.22901461503538        0.00000000000000
C            0.94914616746827        0.17700389689792        0.00000000000000
C            1.53815024117913       -0.49178888189201        1.24116204206565
C            1.53815024117913       -0.49178888189201       -1.24116204206565
C           -1.08831278178206        0.98772614514352        1.23509970536360
C           -1.08831278178206        0.98772614514352       -1.23509970536360
H           -0.94016166581102       -1.73556949164795        0.88379107722917
H           -2.31251342174277       -1.07956677198990        0.00000000000000
H           -0.94016166581102       -1.73556949164795       -0.88379107722917
H            1.27863380625216        1.22262465573058        0.00000000000000
H            1.26385225337822       -1.54631356202814        1.28459139942014
H            1.21579660562714       -0.01742416851922        2.16538022291752
H            2.62632525468169       -0.44133309853187        1.20736899469526
H            1.26385225337822       -1.54631356202814       -1.28459139942014
H            2.62632525468169       -0.44133309853187       -1.20736899469526
H            1.21579660562714       -0.01742416851922       -2.16538022291752
H           -0.88372311103932        0.44312725867003        2.15536156399787
H           -2.16643742203565        1.14241772078349        1.17684495712500
H           -0.61143237616236        1.96723573174556        1.30456897807933
H           -0.88372311103932        0.44312725867003       -2.15536156399787
H           -0.61143237616236        1.96723573174556       -1.30456897807933
H           -2.16643742203565        1.14241772078349       -1.17684495712500
