16

N           -1.97874472539899        0.38806175887207        0.00000000000000
N           -0.09751207684206        1.78644218940429        0.00000000000000
N            1.19141119580039       -1.50153919591254        0.00000000000000
N            2.04486866777995        0.55280826811656        0.00000000000000
N           -1.81263491886566       -1.89758838928608        0.00000000000000
C            2.28017924208729       -0.80704992649565        0.00000000000000
C            0.70676512001357        0.69635504750772        0.00000000000000
C           -1.21503458387017       -0.73033878126782        0.00000000000000
C           -1.43144037238496        1.55581292485607        0.00000000000000
C            0.18820856322929       -0.58062597284460        0.00000000000000
H            2.75147325240392        1.27436105665081        0.00000000000000
H           -2.82053227415766       -1.94918144792251        0.00000000000000
H           -1.28018557352896       -2.75491568538623        0.00000000000000
H           -2.06461310145890        2.43530083783655        0.00000000000000
H            3.28499161718623       -1.20327387475612        0.00000000000000
H            0.25279996800673        2.73537119062748        0.00000000000000
