17

C           -0.09239716975627       -0.09082099355056       -0.55818190161105
C            0.08189281793502        0.68582395138546        1.55860694830944
C            0.06015581940130       -0.65947095345723        1.62653294315474
N           -0.03165617427310       -1.10707692131667        0.32686703548608
N            0.00350182303371        1.00286292872422        0.22230204301148
H            0.14638781295684        1.42537889894735        2.34079289247470
H            0.10314381641400       -1.31728890644218        2.48049988258314
C           -0.06634917192278       -2.50077782256710       -0.04484293817006
C            0.01396182236507        2.34962583306369       -0.29727092007978
H            0.82072376534568       -3.02439478542130        0.31465103672349
H           -0.95002610914849       -2.99233978749817        0.36404803281929
H           -0.09583516953590       -2.56492381780985       -1.12852086076391
H           -0.85053511595615        2.90817679356968        0.06107205469177
H            0.92398275798896        2.87134179610994       -0.00110194103663
H           -0.02152517499729        2.30441983633909       -1.38277284296398
Cl           0.08465781754630        0.52589196279600       -3.58836068646016
H           -0.13008416739689        0.18357198712761       -2.29432077816860
