9

O           -0.92207537047559        0.66105046273493        0.00000000000000
H            0.04219327160482        0.62857632352687        0.00000000000000
C           -1.38350432633545       -0.67442701861675        0.00000000000000
H           -2.46979095292538       -0.64303571792564        0.00000000000000
H           -1.06201013704719       -1.22827147135323       -0.88499196199036
H           -1.06201013704719       -1.22827147135323        0.88499196199036
O            1.99337015976535        0.56453175978027        0.00000000000000
H            2.43211986838972        0.95752789179791       -0.75729694455940
H            2.43211986838972        0.95752789179791        0.75729694455940
