26

N           -1.22947598621295       -0.27751687466223        0.40334828560223
C            0.08065282412392       -0.09684379302565       -0.16928559838273
C            1.06862391830215       -0.71245491464323        0.81338296426636
O            0.80534089898356       -0.72693649103780        2.01627544418406
C            0.34670593709152        1.39973308929281       -0.40170992073196
O            1.56064981615243        1.48270095495669       -1.14746866711543
C            0.42912212552118        2.20317584237527        0.88017041017282
H           -1.25250152445959       -0.46742943221146        1.39345152053884
H            0.10559464661007       -0.58535846850778       -1.14261570696197
H           -0.49224261897860        1.74641239114794       -1.01113577669480
H            1.74513652885507        2.41557944977160       -1.29330013555181
H            0.54180299115685        3.26205936612102        0.64522262497668
H            1.27842128732419        1.88502858335935        1.48119134271945
H           -0.47851908701441        2.08595848168166        1.46900266031753
N            2.22538470369266       -1.20704681677576        0.32479992141480
H            2.80573303337616       -1.62391066776602        1.03617630359860
C            2.57503943869190       -1.42691013889289       -1.06766448713125
H            2.33760511151877       -0.54929418670172       -1.65678086381094
H            3.64767378862248       -1.58965290435687       -1.12364403338103
H            2.07207981962100       -2.30133034207147       -1.48174329696995
C           -2.34290391199368       -0.32162887166022       -0.37314233311859
O           -2.30324654185711       -0.15226945051682       -1.58707787316916
C           -3.63227369456888       -0.59360207484946        0.36320498764468
H           -4.05311050769763       -1.52421637977224       -0.01078959939482
H           -4.33646915994628        0.20205104404341        0.13360580683964
H           -3.50357483690928       -0.66431938715433        1.44027101984896
