11

N            0.00000000000000        0.00000000000000        1.61323658878257
C           -1.14300847317336        0.00000000000000        0.90963761798963
H           -2.05883170084738        0.00000000000000        1.48697492130152
C           -1.19386863500235        0.00000000000000       -0.48216759383337
H           -2.14979267482208        0.00000000000000       -0.98607123446387
C            0.00000000000000        0.00000000000000       -1.19492848094056
H            0.00000000000000        0.00000000000000       -2.27625733120800
C            1.19386863500235        0.00000000000000       -0.48216759383337
H            2.14979267482208        0.00000000000000       -0.98607123446387
C            1.14300847317336        0.00000000000000        0.90963761798963
H            2.05883170084738        0.00000000000000        1.48697492130152
