18

C           -2.16116966590905        0.58444793703441       -0.38930937870280
C           -0.78812396505589        0.56758436840146       -0.51180122150700
C           -0.26636557358631        1.89209873330857       -0.66343814649134
C           -1.23646999497077        2.86413039063084       -0.65328176729440
S           -2.80553882593459        2.18121286370126       -0.45735083355956
H           -2.82772562239877       -0.26478685402418       -0.26630511307321
H            0.79408315868832        2.11394110508834       -0.78291907135041
H           -1.11649728223413        3.93857618520745       -0.75559218824962
C            0.05728326188864       -0.67887498648156       -0.46741034289921
H            0.74709836367321       -0.68558538331356       -1.32941795817054
H           -0.58930003300305       -1.56305712172913       -0.58572353140154
C            0.87939940827575       -0.82352820137793        0.82748072074182
H            1.52433293394460        0.06193807275536        0.94851107430479
H            0.19173503269804       -0.81775383658621        1.68860539727495
C            1.73268690718455       -2.09324871158252        0.84690896800033
H            2.44556948754819       -2.10892878887729        0.00816600765820
H            2.31172256798422       -2.17295186408577        1.77783923709070
H            1.10727984120700       -2.99521390806957        0.76503814762890
