23

C            0.20560658360538        2.76421997593722        0.66626750797612
H            0.60093574981637        1.93029205852442        1.22849782490961
H           -0.18859354823895        3.59891897301390        1.22815324175533
C            0.20560658360538        2.76421997593722       -0.66626750797612
H            0.60093574981637        1.93029205852442       -1.22849782490961
H           -0.18859354823895        3.59891897301390       -1.22815324175533
C            0.22501502216600       -1.00581283062672       -2.53290557416115
H            0.96427660631671       -0.20493712857060       -2.56286876204567
H            0.76558788402980       -1.95154523944469       -2.56938301842851
H           -0.38243077707615       -0.93271534990907       -3.43369106636751
C           -0.62281080308546       -0.91542760279771       -1.27093019831085
H           -1.36882177033324       -1.71348344648680       -1.27086203395754
H           -1.17691753654325        0.02569202024747       -1.26218976040738
C            0.21036252738033       -1.01235980633518        0.00000000000000
H            0.76383251697901       -1.95618593201839        0.00000000000000
H            0.96336970054004       -0.21812959259121        0.00000000000000
C           -0.62281080308546       -0.91542760279771        1.27093019831085
H           -1.36882177033324       -1.71348344648680        1.27086203395754
H           -1.17691753654325        0.02569202024747        1.26218976040738
C            0.22501502216600       -1.00581283062672        2.53290557416115
H            0.96427660631671       -0.20493712857060        2.56286876204567
H           -0.38243077707615       -0.93271534990907        3.43369106636751
H            0.76558788402980       -1.95154523944469        2.56938301842851
