17

C           -0.14142451803074       -0.26667231955327       -2.53331324403658
H            0.33154988800950       -1.24823554268081       -2.56364500194677
H           -1.22025635785004       -0.41781483120413       -2.56695194563387
H            0.14781284369612        0.27211441761784       -3.43443895075591
C            0.26075921292117        0.48605433073221       -1.27190110479808
H           -0.19635087995987        1.47855946715394       -1.27102940762867
H            1.34140317228325        0.64657364559802       -1.26667983825447
C           -0.14008828586733       -0.24903649355710        0.00000000000000
H           -1.22269134767680       -0.40703756084243        0.00000000000000
H            0.31469991600440       -1.24418512153098        0.00000000000000
C            0.26075921292117        0.48605433073221        1.27190110479808
H           -0.19635087995987        1.47855946715394        1.27102940762867
H            1.34140317228325        0.64657364559802        1.26667983825447
C           -0.14142451803074       -0.26667231955327        2.53331324403658
H            0.33154988800950       -1.24823554268081        2.56364500194677
H            0.14781284369612        0.27211441761784        3.43443895075591
H           -1.22025635785004       -0.41781483120413        2.56695194563387
