18

C            1.07493533223917        0.14698844396648       -1.06208484880164
C           -0.28473475893779        0.87639590275007       -0.76118168981155
C           -0.28473475893779        0.87639590275007        0.76118168981155
C            1.07493533223917        0.14698844396648        1.06208484880164
C            0.90426764739510       -1.30155334284475       -0.66453595203088
C            0.90426764739510       -1.30155334284475        0.66453595203088
O            1.86195208552089        0.66513276508395        0.00000000000000
C           -1.52705286873181        0.11826258867400       -1.14136178047276
C           -1.52705286873181        0.11826258867400        1.14136178047276
O           -2.18546302042957       -0.28789094833042        0.00000000000000
O           -1.94474050633881       -0.13993342616741        2.22171051039754
O           -1.94474050633881       -0.13993342616741       -2.22171051039754
H            1.51270432014218        0.36955280249759       -2.03079925578272
H           -0.29167251906700        1.86403406842741       -1.22051033584163
H           -0.29167251906700        1.86403406842741        1.22051033584163
H            1.51270432014218        0.36955280249759        2.03079925578272
H            0.71804882075328       -2.12236794568016       -1.34224076739178
H            0.71804882075328       -2.12236794568016        1.34224076739178
