14

C           -0.64861995398735       -1.24728991163914       -0.61887995607559
N            0.09134999339371       -0.09368999332406       -0.01626999891647
C           -0.51706996335051        1.28644990844284       -0.27172998050346
C           -1.68683988037698        1.56340988914116        0.66852995232510
H            0.15466998904865       -0.19267998640445        1.00757992821972
H            1.06118992475843       -0.06138999587747       -0.36152997415815
H           -0.66109995291033       -1.14623991846176       -1.70875987844460
H           -0.14150999000118       -2.17438984542022       -0.33389997618133
H           -1.67163988148520       -1.26004991039549       -0.23511998337285
H           -2.07828985260435        2.56715981792038        0.46376996728879
H           -2.51256982170031        0.85220993932307        0.53432996181011
H           -1.34598990449523        1.53685989105079        1.70989987855992
H           -0.80213994305892        1.32459990597990       -1.33016990570783
H            0.29537997899675        1.99509985858785       -0.08252999414469
