15

C           -1.67253255091954        0.01861594038734        0.17262265758126
C           -0.85418901208177        0.11566454043658       -1.10767347133932
C            0.61930098084118       -0.27682639178019       -0.98484108706619
C            1.19448764911263        0.32950739655703        0.29172291992034
C            0.40303023474280       -0.17299047146854        1.48424481603966
O           -1.02507334251234        0.03376823079045        1.36595001431934
O           -2.87439478056949        0.00120879645953        0.16605517124698
H           -0.93585978079529        1.16350355343713       -1.41798726033823
H           -1.38018013407745       -0.46684209788154       -1.86427238920682
H            0.71518495373311       -1.36698337546381       -0.94428164977526
H            1.17014125716528        0.05538144040704       -1.86736059675990
H            1.14852383270885        1.42244032974142        0.24495081087554
H            2.24344142936081        0.05397975275577        0.42924258629117
H            0.56621490494665       -1.24642276960592        1.62530140814682
H            0.68190435834454        0.33599512522767        2.40632607006462
