4

H            0.00000000000000        0.58810895849959        0.00000000000000
H            0.00000000000000       -0.58810895849959        0.00000000000000
F            0.00000000000000        0.00000000000000        1.03765292623758
F            0.00000000000000        0.00000000000000       -1.03765292623758
