5

N           -0.11115880881596       -0.02551613505847       -0.01730510420814
O           -0.58895878740315        0.46555592135125        1.24339839065754
H            0.90087985131209       -0.04906254315735        0.02793548084478
H           -0.33038589518815        0.73021745378188       -0.65400732092568
H            0.15696864021476        0.47750631007503        1.84464756432388
