12

C            0.43857205534645        0.01558232172713       -0.00870077669939
C           -0.68887716427416        0.80856145260568        0.06135597923745
N           -1.76135749721504       -0.06458010447123        0.03252766925631
H           -2.74130302528564        0.19188059530205        0.06640632519798
H           -1.88131867658728       -2.21341230787616       -0.09260909581196
H           -0.82386882776256        1.88248110422060        0.12738582010926
C            1.87412293055324        0.42986528220493       -0.01241125718048
H            2.40894261285138        0.00176086137914        0.84841199763203
H            2.38290818486786        0.07227662345909       -0.91974261899058
H            1.97252334169078        1.52265637647780        0.03008414718196
C           -1.25011497401922       -1.33010158710424       -0.05304286188744
N            0.06977103983423       -1.31697061792479       -0.07966532804512
