20

C            2.71179265772139       -0.43475701899132        0.12181674111440
C            1.21263776374487       -0.40573702118025       -0.14821623951262
C            0.63272880512786        0.99251087970577        0.02690974815740
C           -0.84593808982298        1.13767086898998       -0.32836722677189
C           -1.79086002307860        0.25488793168203        0.49763271452305
C           -2.11759299986063       -1.08283597289052       -0.15946923841175
H            2.92737964236014       -0.09785204281236        1.13584266954616
H            3.24144061991010        0.22541193393067       -0.56484420995894
H            3.12295662845607       -1.43655794788531        0.00800574956492
H            0.71142679954220       -1.10107997161119        0.52663771280608
H            1.01263077803634       -0.75660199645977       -1.16358216741151
H            1.21348276396961        1.68833283023529       -0.58475320868094
H            0.77779579469232        1.30467485749831        1.06554467436621
H           -0.98810308002968        0.91949188494126       -1.39069815126139
H           -1.12003307070495        2.18536579483415       -0.19382223599918
H           -2.72677695620310        0.78887689381414        0.66717970274832
H           -1.35454405365970        0.08873294344898        1.48594964450947
H           -2.78170495272474       -1.67909193099996        0.46524671678368
H           -1.22240606300237       -1.66983893143976       -0.35182622510103
H           -2.61631296447418       -0.92160398481013       -1.11518717101044
