10

C            1.32012977793202        0.00000000000000        0.43132426998670
C            0.68972314820428        0.00000000000000       -0.81206241121841
C           -0.68972314820428        0.00000000000000       -0.81206241121841
C           -1.32012977793202        0.00000000000000        0.43132426998670
N           -0.66555291755359        0.00000000000000        1.59125125854861
N            0.66555291755359        0.00000000000000        1.59125125854861
H           -2.40079655279499        0.00000000000000        0.51742412600880
H           -1.26747183881878        0.00000000000000       -1.72793724332568
H            1.26747183881878        0.00000000000000       -1.72793724332568
H            2.40079655279499        0.00000000000000        0.51742412600880
