8

O           -1.91840353350526        0.19998508656230        0.00000000000000
S           -1.32245413392168       -0.36733299425436       -1.47185544358635
O           -0.00713321299387        0.65483757097773       -1.66061428028204
S            1.55660603291325        0.01258457540134       -1.47076572149287
O            1.46436616150985       -0.80016339081169        0.00000000000000
S            1.55660603291325        0.01258457540134        1.47076572149287
O           -0.00713321299387        0.65483757097773        1.66061428028204
S           -1.32245413392168       -0.36733299425436        1.47185544358635
