18

C           -0.75542253430403       -0.79645912648352       -1.02359039547693
C            0.63427483677416       -0.88001701784898       -1.07523328970281
C            1.40695520815368        0.19969536787342       -0.65314433685670
C            0.79886374049403        1.36120452095358       -0.18059790978989
C           -0.59316678959437        1.43431202927333       -0.13359792358432
C           -1.37623920401934        0.35920522357108       -0.55325851841982
I           -1.51434424462338        3.17326811487910        0.57360110850879
H            1.11090695385884       -1.77880173578005       -1.44061984230092
H            1.39917230811964        2.19776736461250        0.14741275164475
H            2.48641779087499        0.14246652562312       -0.68938057701519
H           -2.45425226073430        0.42258112184827       -0.51280796024290
H           -1.36235359895860       -1.63056453013169       -1.34874315489907
S           -3.11268321661412        6.28922786150755        1.22698444436653
H           -4.32878971593308        5.79777127635804        0.97337309325730
C           -2.68913504376162        6.70316385931801       -0.48906288813904
H           -1.68443303636730        7.11545740312128       -0.46026571001309
H           -2.68386721773858        5.81653052744009       -1.11518377987754
H           -3.36533062771914        7.45120144458974       -0.89009889789308
