4

B            0.00000000000000        0.00000000000000        0.00000000000000
H            0.00000000000000        1.18914891566700        0.00000000000000
H            1.02983292692262       -0.59457395776104        0.00000000000000
H           -1.02983292692262       -0.59457395776104        0.00000000000000
