4

P            0.00000000000000        1.04631500456032        0.00000000000000
F            0.37035000161231        2.63152901148510        0.00000000000000
H            0.89653200388511        0.64720600279877        1.02817200449629
H            0.89653200388511        0.64720600279877       -1.02817200449629
