12

F           -2.26832847792112       -1.95820289756470       -0.32302509341283
F           -2.70369059682528        0.72555038617338       -0.25311904110708
C            0.03997041617482       -1.62064906908832        0.00062752900274
C           -1.24671457345283       -1.12233146190881       -0.15818895669188
C           -1.46896063842488        0.24828161708592       -0.12344822353993
C           -0.40484317777068        1.12011072989909        0.06832178829882
C            0.88286916386146        0.62230355572181        0.22323999497640
C            1.10416428582935       -0.74884205527525        0.19224598684084
F           -0.62015774371242        2.43073273263143        0.11306010749450
F            1.90123229631553        1.45642417637004        0.39937748474678
F            0.25082152909703       -2.93383649783189       -0.01016912504448
F            2.33322386520495       -1.22739058736831        0.35478268055173
