17

C            0.00000000000000        1.19047391560608        0.02647299804359
C            0.00000000000000        0.73213394786395       -1.23747591226728
C            0.00000000000000       -0.73213394786395       -1.23747591226728
C            0.00000000000000       -1.19047391560608        0.02647299804359
C            0.00000000000000        0.00000000000000        0.95243693228907
C            0.00000000000000        2.60218181509645        0.50296996406869
C            0.00000000000000       -2.60218181509645        0.50296996406869
H            0.00000000000000        1.34541590438703       -2.12755984881541
H            0.00000000000000       -1.34541590438703       -2.12755984881541
H           -0.87505493809699        0.00000000000000        1.61190788565291
H            0.87505493809699        0.00000000000000        1.61190788565291
H           -0.87687693756831        2.81789580014911        1.12023492051008
H            0.00000000000000        3.30000876568955       -0.33392297633962
H            0.87687693756831        2.81789580014911        1.12023492051008
H            0.00000000000000       -3.30000876568955       -0.33392297633962
H           -0.87687693756831       -2.81789580014911        1.12023492051008
H            0.87687693756831       -2.81789580014911        1.12023492051008
