6

C            0.64435558895846        0.40229542582669        0.00000000000000
C           -0.64435558895846       -0.40229542582669        0.00000000000000
H            0.51339006873012        1.49701237716032        0.00000000000000
H           -0.51339006873012       -1.49701237716032        0.00000000000000
O            1.72258468388049       -0.14107709023367        0.00000000000000
O           -1.72258468388049        0.14107709023367        0.00000000000000
