9

C            0.07161161145887        0.40691694172762       -0.45609592868961
O            0.31810094286585        1.45034311195958       -1.04333517015530
N           -0.23243561608073       -0.74808951320955       -1.10726322746798
H           -0.20723530616303       -0.75510484248255       -2.11389976289825
H           -0.38821209033523       -1.60358176943515       -0.61156155155018
C            0.09445630966014        0.31202511869373        1.05232143606081
H            1.12617003716740        0.39623739576746        1.38739520614333
H           -0.32744757133751       -0.61461781182707        1.43334708132178
H           -0.45500831723576        1.15587136880592        1.45909191723538
