14

C           -0.29185965342803       -2.89452182559180        0.00000000000000
H            0.66835962326829       -3.40596397187488        0.00000000000000
H           -1.17802090569628       -3.52183200449151        0.00000000000000
C           -0.37379868040327       -1.55391444280507        0.00000000000000
H           -1.35953396321267       -1.09227631087598        0.00000000000000
C            0.78456664945712       -0.67768719293182        0.00000000000000
H            1.75028692757207       -1.18240333727744        0.00000000000000
C            0.78456665041530        0.67768719346241        0.00000000000000
H            1.75028692903286        1.18240333691648        0.00000000000000
C           -0.37379867814412        1.55391444317605        0.00000000000000
H           -1.35953396040714        1.09227631173750        0.00000000000000
C           -0.29185965335267        2.89452182529313        0.00000000000000
H            0.66835962114631        3.40596397100001        0.00000000000000
H           -1.17802090624777        3.52183200426292        0.00000000000000
