7

Pb           0.00000000000000        0.00000000000000        1.41301318523485
H            0.00000000000000        1.39921790070563        0.40513525721893
H            0.00000000000000       -1.39921790070563        0.40513525721893
H            1.40865389979972        0.00000000000000        2.40217611506175
H           -1.40865389979972        0.00000000000000        2.40217611506175
H            0.00000000000000        0.00000000000000       -4.30972440837921
I            0.00000000000000        0.00000000000000       -2.71791152141699
