16

N           -0.45624893142532        1.57865960426507        0.00000000000000
N            1.51225425793531        0.44230161592370        0.00000000000000
C           -0.57530561259499       -0.80649581240919        0.00000000000000
C            0.88633083109825       -0.85360090797363        0.00000000000000
C           -1.17646799147833        0.38860336170437        0.00000000000000
C            0.86268039047748        1.59405821403127        0.00000000000000
C           -1.30716532947139       -2.10415534773997        0.00000000000000
O            1.57644232864287       -1.82138319598751        0.00000000000000
O            1.42568843859321        2.76104153774123        0.00000000000000
H           -0.94562936004112        2.46602445857542        0.00000000000000
H            2.52878907870984        0.41610018771925        0.00000000000000
H           -2.25066294963123        0.51159002689982        0.00000000000000
H           -1.04362533497012       -2.69625258575729       -0.87726543218167
H           -1.04362533497012       -2.69625258575729        0.87726543218167
H           -2.38495932432035       -1.95245483408685        0.00000000000000
H            2.39150484344602        2.77221626285159        0.00000000000000
