17

H           -0.03476880115207        0.29458520928844        0.05718756325012
C           -0.01701431607441        0.26196041114575        1.14105026299068
C            1.20124099625394        0.28582410625013        1.82004202796042
C            1.22305120034933        0.24920622508997        3.21325634405400
C            0.02794988812225        0.18885860782602        3.92796427717996
C           -1.18966293420330        0.16464223672011        3.25036167621629
C           -1.21292475930504        0.20126498588029        1.85690601612166
H            2.13070719131920        0.33262652145483        1.26378078052747
H            2.16994733249082        0.26627358916462        3.74073961736108
H            0.04557067819932        0.15881459869462        5.01148283891901
H           -2.11896210626782        0.11621279750828        3.80647033364858
H           -2.16001860444740        0.18369422080343        1.32937888181438
I            0.00341437701493       -3.21565583106449        1.72846281755987
C            0.10616725346435       -5.33339697532698        1.85072329709461
F            0.13527758459167       -5.87710099370501        0.63607454678204
F            1.20221888325821       -5.71699687300475        2.50157727294129
F           -0.95009654715549       -5.82192434146368        2.49689214192080
