4

O           -0.00446950001955       -0.72077360315249        0.00000000000000
O            0.00446950001955        0.72077360315249        0.00000000000000
H           -0.95358730417076       -0.87027730380638        0.00000000000000
H            0.95358730417076        0.87027730380638        0.00000000000000
