18

C           -0.96472593707464        0.01095862940559        1.85474332388515
H            0.06893467360900        0.33941004620794        1.77921211111289
H           -0.99790712041284       -0.99159394015288        2.27572975288940
H           -1.50621180567136        0.66733562384924        2.53145560686576
C           -1.67944108621896       -0.00286571776284        0.52250222651149
O           -2.86493545802903       -0.30108034932125        0.41978765561620
N           -0.91706273507595        0.32310275035247       -0.54863147674223
H            0.04577826939260        0.59081769243256       -0.41825951395345
C           -1.50075903774602        0.34810587243689       -1.87110987582875
H           -2.00702634311661       -0.59234379846818       -2.07706934896572
H           -2.23538142662728        1.14666911096073       -1.96785256706752
H           -0.71005516773411        0.50002800668672       -2.60010072220163
O            2.02165627486282        0.60247471654468       -0.18325436785632
H            2.74251103167241        1.22977429586234       -0.09283956183022
C            2.54074039833443       -0.70289084456035        0.05062740593181
H            1.70816895451422       -1.39167848581786       -0.05494915587821
H            3.30687910284686       -0.97188357285959       -0.67625331667866
H            2.94883741247445       -0.80434003579620        1.05626182419001
