17

C            0.00000000000000        0.00000000000000        0.00000000000000
C            0.88177371710548        0.88177371710548        0.88177371710548
H            1.52189763335027        1.52189763335027        0.27478099567775
H            0.27478099567775        1.52189763335027        1.52189763335027
H            1.52189763335027        0.27478099567775        1.52189763335027
C           -0.88177371710548        0.88177371710548       -0.88177371710548
H           -1.52189763335027        0.27478099567775       -1.52189763335027
H           -1.52189763335027        1.52189763335027       -0.27478099567775
H           -0.27478099567775        1.52189763335027       -1.52189763335027
C           -0.88177371710548       -0.88177371710548        0.88177371710548
H           -1.52189763335027       -1.52189763335027        0.27478099567775
H           -1.52189763335027       -0.27478099567775        1.52189763335027
H           -0.27478099567775       -1.52189763335027        1.52189763335027
C            0.88177371710548       -0.88177371710548       -0.88177371710548
H            1.52189763335027       -1.52189763335027       -0.27478099567775
H            0.27478099567775       -1.52189763335027       -1.52189763335027
H            1.52189763335027       -0.27478099567775       -1.52189763335027
