8

Bi           0.00000000000000        2.25578283988438        0.00000000000000
Bi           0.00000000000000       -2.25578283988438        0.00000000000000
H            0.89048093693365        3.13477877763363        1.24306991176926
H            1.24721491135304        1.00726092855509        0.00000000000000
H            0.89048093693365        3.13477877763363       -1.24306991176926
H           -0.89048093693365       -3.13477877763363       -1.24306991176926
H           -1.24721491135304       -1.00726092855509        0.00000000000000
H           -0.89048093693365       -3.13477877763363        1.24306991176926
